_symmetry_space_group_name_H-M  'P1
_symmetry_Int_Tables_number     1
_symmetry_cell_setting          triclinic

_cell_length_a                  6.391
_cell_length_b                  11.04
_cell_length_c                  639.8
_cell_angle_alpha               90
_cell_angle_beta                109.89
_cell_angle_gamma               90

loop_
  _atom_site_label
  _atom_site_type_symbol
  _atom_site_fract_x
  _atom_site_fract_y
  _atom_site_fract_z
  _atom_site_U_iso_or_equiv
  _atom_site_adp_type
  _atom_site_occupancy
 Sc1_A_n1_fault Sc3+    0.250000    0.250000    0.000000    2.000000 Uiso  1.0000
 Cl1_A_n1_fault Cl1-    0.481300    0.481300    0.002313    2.000000 Uiso  1.0000
 Cl2_A_n1_fault Cl1-    0.018700    0.018700   -0.002313    2.000000 Uiso  1.0000
 Cl3_A_n1_fault Cl1-    0.012900    0.012900   -0.002371    2.000000 Uiso  1.0000
 Cl4_A_n1_fault Cl1-    0.012900    0.012900   -0.002371    2.000000 Uiso  1.0000
 Cl5_A_n1_fault Cl1-    0.487100    0.487100    0.002371    2.000000 Uiso  1.0000
 Cl6_A_n1_fault Cl1-    0.487100    0.487100    0.002371    2.000000 Uiso  1.0000
 Li1a_A_n1_fault Li+    0.250000    0.250000    0.000000    2.000000 Uiso  1.0000
 Li1b_A_n1_fault Li+    0.250000    0.250000    0.000000    2.000000 Uiso  1.0000
 Li2a_A_n1_fault Li+    0.750000    0.750000    0.005000    2.000000 Uiso  0.3650
 Li2b_A_n1_fault Li+    0.750000    0.750000    0.005000    2.000000 Uiso  0.3650
 Li3_A_n1_fault Li+    0.750000    0.750000    0.005000    2.000000 Uiso  0.2700
 Sc1_A_n2 Sc3+    0.000000    0.000000    0.010000    2.000000 Uiso  1.0000
 Cl1_A_n2 Cl1-    0.231300    0.231300    0.012313    2.000000 Uiso  1.0000
 Cl2_A_n2 Cl1-   -0.231300   -0.231300    0.007687    2.000000 Uiso  1.0000
 Cl3_A_n2 Cl1-   -0.237100   -0.237100    0.007629    2.000000 Uiso  1.0000
 Cl4_A_n2 Cl1-   -0.237100   -0.237100    0.007629    2.000000 Uiso  1.0000
 Cl5_A_n2 Cl1-    0.237100    0.237100    0.012371    2.000000 Uiso  1.0000
 Cl6_A_n2 Cl1-    0.237100    0.237100    0.012371    2.000000 Uiso  1.0000
 Li1a_A_n2 Li+    0.000000    0.000000    0.010000    2.000000 Uiso  1.0000
 Li1b_A_n2 Li+    0.000000    0.000000    0.010000    2.000000 Uiso  1.0000
 Li2a_A_n2 Li+    0.500000    0.500000    0.015000    2.000000 Uiso  0.3650
 Li2b_A_n2 Li+    0.500000    0.500000    0.015000    2.000000 Uiso  0.3650
 Li3_A_n2 Li+    0.500000    0.500000    0.015000    2.000000 Uiso  0.2700
 Sc1_A_n3 Sc3+    0.000000    0.000000    0.020000    2.000000 Uiso  1.0000
 Cl1_A_n3 Cl1-    0.231300    0.231300    0.022313    2.000000 Uiso  1.0000
 Cl2_A_n3 Cl1-   -0.231300   -0.231300    0.017687    2.000000 Uiso  1.0000
 Cl3_A_n3 Cl1-   -0.237100   -0.237100    0.017629    2.000000 Uiso  1.0000
 Cl4_A_n3 Cl1-   -0.237100   -0.237100    0.017629    2.000000 Uiso  1.0000
 Cl5_A_n3 Cl1-    0.237100    0.237100    0.022371    2.000000 Uiso  1.0000
 Cl6_A_n3 Cl1-    0.237100    0.237100    0.022371    2.000000 Uiso  1.0000
 Li1a_A_n3 Li+    0.000000    0.000000    0.020000    2.000000 Uiso  1.0000
 Li1b_A_n3 Li+    0.000000    0.000000    0.020000    2.000000 Uiso  1.0000
 Li2a_A_n3 Li+    0.500000    0.500000    0.025000    2.000000 Uiso  0.3650
 Li2b_A_n3 Li+    0.500000    0.500000    0.025000    2.000000 Uiso  0.3650
 Li3_A_n3 Li+    0.500000    0.500000    0.025000    2.000000 Uiso  0.2700
 Sc1_A_n4 Sc3+    0.000000    0.000000    0.030000    2.000000 Uiso  1.0000
 Cl1_A_n4 Cl1-    0.231300    0.231300    0.032313    2.000000 Uiso  1.0000
 Cl2_A_n4 Cl1-   -0.231300   -0.231300    0.027687    2.000000 Uiso  1.0000
 Cl3_A_n4 Cl1-   -0.237100   -0.237100    0.027629    2.000000 Uiso  1.0000
 Cl4_A_n4 Cl1-   -0.237100   -0.237100    0.027629    2.000000 Uiso  1.0000
 Cl5_A_n4 Cl1-    0.237100    0.237100    0.032371    2.000000 Uiso  1.0000
 Cl6_A_n4 Cl1-    0.237100    0.237100    0.032371    2.000000 Uiso  1.0000
 Li1a_A_n4 Li+    0.000000    0.000000    0.030000    2.000000 Uiso  1.0000
 Li1b_A_n4 Li+    0.000000    0.000000    0.030000    2.000000 Uiso  1.0000
 Li2a_A_n4 Li+    0.500000    0.500000    0.035000    2.000000 Uiso  0.3650
 Li2b_A_n4 Li+    0.500000    0.500000    0.035000    2.000000 Uiso  0.3650
 Li3_A_n4 Li+    0.500000    0.500000    0.035000    2.000000 Uiso  0.2700
 Sc1_A_n5 Sc3+    0.000000    0.000000    0.040000    2.000000 Uiso  1.0000
 Cl1_A_n5 Cl1-    0.231300    0.231300    0.042313    2.000000 Uiso  1.0000
 Cl2_A_n5 Cl1-   -0.231300   -0.231300    0.037687    2.000000 Uiso  1.0000
 Cl3_A_n5 Cl1-   -0.237100   -0.237100    0.037629    2.000000 Uiso  1.0000
 Cl4_A_n5 Cl1-   -0.237100   -0.237100    0.037629    2.000000 Uiso  1.0000
 Cl5_A_n5 Cl1-    0.237100    0.237100    0.042371    2.000000 Uiso  1.0000
 Cl6_A_n5 Cl1-    0.237100    0.237100    0.042371    2.000000 Uiso  1.0000
 Li1a_A_n5 Li+    0.000000    0.000000    0.040000    2.000000 Uiso  1.0000
 Li1b_A_n5 Li+    0.000000    0.000000    0.040000    2.000000 Uiso  1.0000
 Li2a_A_n5 Li+    0.500000    0.500000    0.045000    2.000000 Uiso  0.3650
 Li2b_A_n5 Li+    0.500000    0.500000    0.045000    2.000000 Uiso  0.3650
 Li3_A_n5 Li+    0.500000    0.500000    0.045000    2.000000 Uiso  0.2700
 Sc1_A_n6 Sc3+    0.000000    0.000000    0.050000    2.000000 Uiso  1.0000
 Cl1_A_n6 Cl1-    0.231300    0.231300    0.052313    2.000000 Uiso  1.0000
 Cl2_A_n6 Cl1-   -0.231300   -0.231300    0.047687    2.000000 Uiso  1.0000
 Cl3_A_n6 Cl1-   -0.237100   -0.237100    0.047629    2.000000 Uiso  1.0000
 Cl4_A_n6 Cl1-   -0.237100   -0.237100    0.047629    2.000000 Uiso  1.0000
 Cl5_A_n6 Cl1-    0.237100    0.237100    0.052371    2.000000 Uiso  1.0000
 Cl6_A_n6 Cl1-    0.237100    0.237100    0.052371    2.000000 Uiso  1.0000
 Li1a_A_n6 Li+    0.000000    0.000000    0.050000    2.000000 Uiso  1.0000
 Li1b_A_n6 Li+    0.000000    0.000000    0.050000    2.000000 Uiso  1.0000
 Li2a_A_n6 Li+    0.500000    0.500000    0.055000    2.000000 Uiso  0.3650
 Li2b_A_n6 Li+    0.500000    0.500000    0.055000    2.000000 Uiso  0.3650
 Li3_A_n6 Li+    0.500000    0.500000    0.055000    2.000000 Uiso  0.2700
 Sc1_A_n7 Sc3+    0.000000    0.000000    0.060000    2.000000 Uiso  1.0000
 Cl1_A_n7 Cl1-    0.231300    0.231300    0.062313    2.000000 Uiso  1.0000
 Cl2_A_n7 Cl1-   -0.231300   -0.231300    0.057687    2.000000 Uiso  1.0000
 Cl3_A_n7 Cl1-   -0.237100   -0.237100    0.057629    2.000000 Uiso  1.0000
 Cl4_A_n7 Cl1-   -0.237100   -0.237100    0.057629    2.000000 Uiso  1.0000
 Cl5_A_n7 Cl1-    0.237100    0.237100    0.062371    2.000000 Uiso  1.0000
 Cl6_A_n7 Cl1-    0.237100    0.237100    0.062371    2.000000 Uiso  1.0000
 Li1a_A_n7 Li+    0.000000    0.000000    0.060000    2.000000 Uiso  1.0000
 Li1b_A_n7 Li+    0.000000    0.000000    0.060000    2.000000 Uiso  1.0000
 Li2a_A_n7 Li+    0.500000    0.500000    0.065000    2.000000 Uiso  0.3650
 Li2b_A_n7 Li+    0.500000    0.500000    0.065000    2.000000 Uiso  0.3650
 Li3_A_n7 Li+    0.500000    0.500000    0.065000    2.000000 Uiso  0.2700
 Sc1_A_n8 Sc3+    0.000000    0.000000    0.070000    2.000000 Uiso  1.0000
 Cl1_A_n8 Cl1-    0.231300    0.231300    0.072313    2.000000 Uiso  1.0000
 Cl2_A_n8 Cl1-   -0.231300   -0.231300    0.067687    2.000000 Uiso  1.0000
 Cl3_A_n8 Cl1-   -0.237100   -0.237100    0.067629    2.000000 Uiso  1.0000
 Cl4_A_n8 Cl1-   -0.237100   -0.237100    0.067629    2.000000 Uiso  1.0000
 Cl5_A_n8 Cl1-    0.237100    0.237100    0.072371    2.000000 Uiso  1.0000
 Cl6_A_n8 Cl1-    0.237100    0.237100    0.072371    2.000000 Uiso  1.0000
 Li1a_A_n8 Li+    0.000000    0.000000    0.070000    2.000000 Uiso  1.0000
 Li1b_A_n8 Li+    0.000000    0.000000    0.070000    2.000000 Uiso  1.0000
 Li2a_A_n8 Li+    0.500000    0.500000    0.075000    2.000000 Uiso  0.3650
 Li2b_A_n8 Li+    0.500000    0.500000    0.075000    2.000000 Uiso  0.3650
 Li3_A_n8 Li+    0.500000    0.500000    0.075000    2.000000 Uiso  0.2700
 Sc1_A_n9_fault Sc3+    0.250000    0.250000    0.080000    2.000000 Uiso  1.0000
 Cl1_A_n9_fault Cl1-    0.481300    0.481300    0.082313    2.000000 Uiso  1.0000
 Cl2_A_n9_fault Cl1-    0.018700    0.018700    0.077687    2.000000 Uiso  1.0000
 Cl3_A_n9_fault Cl1-    0.012900    0.012900    0.077629    2.000000 Uiso  1.0000
 Cl4_A_n9_fault Cl1-    0.012900    0.012900    0.077629    2.000000 Uiso  1.0000
 Cl5_A_n9_fault Cl1-    0.487100    0.487100    0.082371    2.000000 Uiso  1.0000
 Cl6_A_n9_fault Cl1-    0.487100    0.487100    0.082371    2.000000 Uiso  1.0000
 Li1a_A_n9_fault Li+    0.250000    0.250000    0.080000    2.000000 Uiso  1.0000
 Li1b_A_n9_fault Li+    0.250000    0.250000    0.080000    2.000000 Uiso  1.0000
 Li2a_A_n9_fault Li+    0.750000    0.750000    0.085000    2.000000 Uiso  0.3650
 Li2b_A_n9_fault Li+    0.750000    0.750000    0.085000    2.000000 Uiso  0.3650
 Li3_A_n9_fault Li+    0.750000    0.750000    0.085000    2.000000 Uiso  0.2700
 Sc1_A_n10 Sc3+    0.000000    0.000000    0.090000    2.000000 Uiso  1.0000
 Cl1_A_n10 Cl1-    0.231300    0.231300    0.092313    2.000000 Uiso  1.0000
 Cl2_A_n10 Cl1-   -0.231300   -0.231300    0.087687    2.000000 Uiso  1.0000
 Cl3_A_n10 Cl1-   -0.237100   -0.237100    0.087629    2.000000 Uiso  1.0000
 Cl4_A_n10 Cl1-   -0.237100   -0.237100    0.087629    2.000000 Uiso  1.0000
 Cl5_A_n10 Cl1-    0.237100    0.237100    0.092371    2.000000 Uiso  1.0000
 Cl6_A_n10 Cl1-    0.237100    0.237100    0.092371    2.000000 Uiso  1.0000
 Li1a_A_n10 Li+    0.000000    0.000000    0.090000    2.000000 Uiso  1.0000
 Li1b_A_n10 Li+    0.000000    0.000000    0.090000    2.000000 Uiso  1.0000
 Li2a_A_n10 Li+    0.500000    0.500000    0.095000    2.000000 Uiso  0.3650
 Li2b_A_n10 Li+    0.500000    0.500000    0.095000    2.000000 Uiso  0.3650
 Li3_A_n10 Li+    0.500000    0.500000    0.095000    2.000000 Uiso  0.2700
 Sc1_A_n11 Sc3+    0.000000    0.000000    0.100000    2.000000 Uiso  1.0000
 Cl1_A_n11 Cl1-    0.231300    0.231300    0.102313    2.000000 Uiso  1.0000
 Cl2_A_n11 Cl1-   -0.231300   -0.231300    0.097687    2.000000 Uiso  1.0000
 Cl3_A_n11 Cl1-   -0.237100   -0.237100    0.097629    2.000000 Uiso  1.0000
 Cl4_A_n11 Cl1-   -0.237100   -0.237100    0.097629    2.000000 Uiso  1.0000
 Cl5_A_n11 Cl1-    0.237100    0.237100    0.102371    2.000000 Uiso  1.0000
 Cl6_A_n11 Cl1-    0.237100    0.237100    0.102371    2.000000 Uiso  1.0000
 Li1a_A_n11 Li+    0.000000    0.000000    0.100000    2.000000 Uiso  1.0000
 Li1b_A_n11 Li+    0.000000    0.000000    0.100000    2.000000 Uiso  1.0000
 Li2a_A_n11 Li+    0.500000    0.500000    0.105000    2.000000 Uiso  0.3650
 Li2b_A_n11 Li+    0.500000    0.500000    0.105000    2.000000 Uiso  0.3650
 Li3_A_n11 Li+    0.500000    0.500000    0.105000    2.000000 Uiso  0.2700
 Sc1_A_n12 Sc3+    0.000000    0.000000    0.110000    2.000000 Uiso  1.0000
 Cl1_A_n12 Cl1-    0.231300    0.231300    0.112313    2.000000 Uiso  1.0000
 Cl2_A_n12 Cl1-   -0.231300   -0.231300    0.107687    2.000000 Uiso  1.0000
 Cl3_A_n12 Cl1-   -0.237100   -0.237100    0.107629    2.000000 Uiso  1.0000
 Cl4_A_n12 Cl1-   -0.237100   -0.237100    0.107629    2.000000 Uiso  1.0000
 Cl5_A_n12 Cl1-    0.237100    0.237100    0.112371    2.000000 Uiso  1.0000
 Cl6_A_n12 Cl1-    0.237100    0.237100    0.112371    2.000000 Uiso  1.0000
 Li1a_A_n12 Li+    0.000000    0.000000    0.110000    2.000000 Uiso  1.0000
 Li1b_A_n12 Li+    0.000000    0.000000    0.110000    2.000000 Uiso  1.0000
 Li2a_A_n12 Li+    0.500000    0.500000    0.115000    2.000000 Uiso  0.3650
 Li2b_A_n12 Li+    0.500000    0.500000    0.115000    2.000000 Uiso  0.3650
 Li3_A_n12 Li+    0.500000    0.500000    0.115000    2.000000 Uiso  0.2700
 Sc1_A_n13 Sc3+    0.000000    0.000000    0.120000    2.000000 Uiso  1.0000
 Cl1_A_n13 Cl1-    0.231300    0.231300    0.122313    2.000000 Uiso  1.0000
 Cl2_A_n13 Cl1-   -0.231300   -0.231300    0.117687    2.000000 Uiso  1.0000
 Cl3_A_n13 Cl1-   -0.237100   -0.237100    0.117629    2.000000 Uiso  1.0000
 Cl4_A_n13 Cl1-   -0.237100   -0.237100    0.117629    2.000000 Uiso  1.0000
 Cl5_A_n13 Cl1-    0.237100    0.237100    0.122371    2.000000 Uiso  1.0000
 Cl6_A_n13 Cl1-    0.237100    0.237100    0.122371    2.000000 Uiso  1.0000
 Li1a_A_n13 Li+    0.000000    0.000000    0.120000    2.000000 Uiso  1.0000
 Li1b_A_n13 Li+    0.000000    0.000000    0.120000    2.000000 Uiso  1.0000
 Li2a_A_n13 Li+    0.500000    0.500000    0.125000    2.000000 Uiso  0.3650
 Li2b_A_n13 Li+    0.500000    0.500000    0.125000    2.000000 Uiso  0.3650
 Li3_A_n13 Li+    0.500000    0.500000    0.125000    2.000000 Uiso  0.2700
 Sc1_A_n14 Sc3+    0.000000    0.000000    0.130000    2.000000 Uiso  1.0000
 Cl1_A_n14 Cl1-    0.231300    0.231300    0.132313    2.000000 Uiso  1.0000
 Cl2_A_n14 Cl1-   -0.231300   -0.231300    0.127687    2.000000 Uiso  1.0000
 Cl3_A_n14 Cl1-   -0.237100   -0.237100    0.127629    2.000000 Uiso  1.0000
 Cl4_A_n14 Cl1-   -0.237100   -0.237100    0.127629    2.000000 Uiso  1.0000
 Cl5_A_n14 Cl1-    0.237100    0.237100    0.132371    2.000000 Uiso  1.0000
 Cl6_A_n14 Cl1-    0.237100    0.237100    0.132371    2.000000 Uiso  1.0000
 Li1a_A_n14 Li+    0.000000    0.000000    0.130000    2.000000 Uiso  1.0000
 Li1b_A_n14 Li+    0.000000    0.000000    0.130000    2.000000 Uiso  1.0000
 Li2a_A_n14 Li+    0.500000    0.500000    0.135000    2.000000 Uiso  0.3650
 Li2b_A_n14 Li+    0.500000    0.500000    0.135000    2.000000 Uiso  0.3650
 Li3_A_n14 Li+    0.500000    0.500000    0.135000    2.000000 Uiso  0.2700
 Sc1_A_n15 Sc3+    0.000000    0.000000    0.140000    2.000000 Uiso  1.0000
 Cl1_A_n15 Cl1-    0.231300    0.231300    0.142313    2.000000 Uiso  1.0000
 Cl2_A_n15 Cl1-   -0.231300   -0.231300    0.137687    2.000000 Uiso  1.0000
 Cl3_A_n15 Cl1-   -0.237100   -0.237100    0.137629    2.000000 Uiso  1.0000
 Cl4_A_n15 Cl1-   -0.237100   -0.237100    0.137629    2.000000 Uiso  1.0000
 Cl5_A_n15 Cl1-    0.237100    0.237100    0.142371    2.000000 Uiso  1.0000
 Cl6_A_n15 Cl1-    0.237100    0.237100    0.142371    2.000000 Uiso  1.0000
 Li1a_A_n15 Li+    0.000000    0.000000    0.140000    2.000000 Uiso  1.0000
 Li1b_A_n15 Li+    0.000000    0.000000    0.140000    2.000000 Uiso  1.0000
 Li2a_A_n15 Li+    0.500000    0.500000    0.145000    2.000000 Uiso  0.3650
 Li2b_A_n15 Li+    0.500000    0.500000    0.145000    2.000000 Uiso  0.3650
 Li3_A_n15 Li+    0.500000    0.500000    0.145000    2.000000 Uiso  0.2700
 Sc1_A_n16 Sc3+    0.000000    0.000000    0.150000    2.000000 Uiso  1.0000
 Cl1_A_n16 Cl1-    0.231300    0.231300    0.152313    2.000000 Uiso  1.0000
 Cl2_A_n16 Cl1-   -0.231300   -0.231300    0.147687    2.000000 Uiso  1.0000
 Cl3_A_n16 Cl1-   -0.237100   -0.237100    0.147629    2.000000 Uiso  1.0000
 Cl4_A_n16 Cl1-   -0.237100   -0.237100    0.147629    2.000000 Uiso  1.0000
 Cl5_A_n16 Cl1-    0.237100    0.237100    0.152371    2.000000 Uiso  1.0000
 Cl6_A_n16 Cl1-    0.237100    0.237100    0.152371    2.000000 Uiso  1.0000
 Li1a_A_n16 Li+    0.000000    0.000000    0.150000    2.000000 Uiso  1.0000
 Li1b_A_n16 Li+    0.000000    0.000000    0.150000    2.000000 Uiso  1.0000
 Li2a_A_n16 Li+    0.500000    0.500000    0.155000    2.000000 Uiso  0.3650
 Li2b_A_n16 Li+    0.500000    0.500000    0.155000    2.000000 Uiso  0.3650
 Li3_A_n16 Li+    0.500000    0.500000    0.155000    2.000000 Uiso  0.2700
 Sc1_A_n17 Sc3+    0.000000    0.000000    0.160000    2.000000 Uiso  1.0000
 Cl1_A_n17 Cl1-    0.231300    0.231300    0.162313    2.000000 Uiso  1.0000
 Cl2_A_n17 Cl1-   -0.231300   -0.231300    0.157687    2.000000 Uiso  1.0000
 Cl3_A_n17 Cl1-   -0.237100   -0.237100    0.157629    2.000000 Uiso  1.0000
 Cl4_A_n17 Cl1-   -0.237100   -0.237100    0.157629    2.000000 Uiso  1.0000
 Cl5_A_n17 Cl1-    0.237100    0.237100    0.162371    2.000000 Uiso  1.0000
 Cl6_A_n17 Cl1-    0.237100    0.237100    0.162371    2.000000 Uiso  1.0000
 Li1a_A_n17 Li+    0.000000    0.000000    0.160000    2.000000 Uiso  1.0000
 Li1b_A_n17 Li+    0.000000    0.000000    0.160000    2.000000 Uiso  1.0000
 Li2a_A_n17 Li+    0.500000    0.500000    0.165000    2.000000 Uiso  0.3650
 Li2b_A_n17 Li+    0.500000    0.500000    0.165000    2.000000 Uiso  0.3650
 Li3_A_n17 Li+    0.500000    0.500000    0.165000    2.000000 Uiso  0.2700
 Sc1_A_n18 Sc3+    0.000000    0.000000    0.170000    2.000000 Uiso  1.0000
 Cl1_A_n18 Cl1-    0.231300    0.231300    0.172313    2.000000 Uiso  1.0000
 Cl2_A_n18 Cl1-   -0.231300   -0.231300    0.167687    2.000000 Uiso  1.0000
 Cl3_A_n18 Cl1-   -0.237100   -0.237100    0.167629    2.000000 Uiso  1.0000
 Cl4_A_n18 Cl1-   -0.237100   -0.237100    0.167629    2.000000 Uiso  1.0000
 Cl5_A_n18 Cl1-    0.237100    0.237100    0.172371    2.000000 Uiso  1.0000
 Cl6_A_n18 Cl1-    0.237100    0.237100    0.172371    2.000000 Uiso  1.0000
 Li1a_A_n18 Li+    0.000000    0.000000    0.170000    2.000000 Uiso  1.0000
 Li1b_A_n18 Li+    0.000000    0.000000    0.170000    2.000000 Uiso  1.0000
 Li2a_A_n18 Li+    0.500000    0.500000    0.175000    2.000000 Uiso  0.3650
 Li2b_A_n18 Li+    0.500000    0.500000    0.175000    2.000000 Uiso  0.3650
 Li3_A_n18 Li+    0.500000    0.500000    0.175000    2.000000 Uiso  0.2700
 Sc1_A_n19 Sc3+    0.000000    0.000000    0.180000    2.000000 Uiso  1.0000
 Cl1_A_n19 Cl1-    0.231300    0.231300    0.182313    2.000000 Uiso  1.0000
 Cl2_A_n19 Cl1-   -0.231300   -0.231300    0.177687    2.000000 Uiso  1.0000
 Cl3_A_n19 Cl1-   -0.237100   -0.237100    0.177629    2.000000 Uiso  1.0000
 Cl4_A_n19 Cl1-   -0.237100   -0.237100    0.177629    2.000000 Uiso  1.0000
 Cl5_A_n19 Cl1-    0.237100    0.237100    0.182371    2.000000 Uiso  1.0000
 Cl6_A_n19 Cl1-    0.237100    0.237100    0.182371    2.000000 Uiso  1.0000
 Li1a_A_n19 Li+    0.000000    0.000000    0.180000    2.000000 Uiso  1.0000
 Li1b_A_n19 Li+    0.000000    0.000000    0.180000    2.000000 Uiso  1.0000
 Li2a_A_n19 Li+    0.500000    0.500000    0.185000    2.000000 Uiso  0.3650
 Li2b_A_n19 Li+    0.500000    0.500000    0.185000    2.000000 Uiso  0.3650
 Li3_A_n19 Li+    0.500000    0.500000    0.185000    2.000000 Uiso  0.2700
 Sc1_A_n20 Sc3+    0.000000    0.000000    0.190000    2.000000 Uiso  1.0000
 Cl1_A_n20 Cl1-    0.231300    0.231300    0.192313    2.000000 Uiso  1.0000
 Cl2_A_n20 Cl1-   -0.231300   -0.231300    0.187687    2.000000 Uiso  1.0000
 Cl3_A_n20 Cl1-   -0.237100   -0.237100    0.187629    2.000000 Uiso  1.0000
 Cl4_A_n20 Cl1-   -0.237100   -0.237100    0.187629    2.000000 Uiso  1.0000
 Cl5_A_n20 Cl1-    0.237100    0.237100    0.192371    2.000000 Uiso  1.0000
 Cl6_A_n20 Cl1-    0.237100    0.237100    0.192371    2.000000 Uiso  1.0000
 Li1a_A_n20 Li+    0.000000    0.000000    0.190000    2.000000 Uiso  1.0000
 Li1b_A_n20 Li+    0.000000    0.000000    0.190000    2.000000 Uiso  1.0000
 Li2a_A_n20 Li+    0.500000    0.500000    0.195000    2.000000 Uiso  0.3650
 Li2b_A_n20 Li+    0.500000    0.500000    0.195000    2.000000 Uiso  0.3650
 Li3_A_n20 Li+    0.500000    0.500000    0.195000    2.000000 Uiso  0.2700
 Sc1_A_n21_fault Sc3+    0.250000    0.250000    0.200000    2.000000 Uiso  1.0000
 Cl1_A_n21_fault Cl1-    0.481300    0.481300    0.202313    2.000000 Uiso  1.0000
 Cl2_A_n21_fault Cl1-    0.018700    0.018700    0.197687    2.000000 Uiso  1.0000
 Cl3_A_n21_fault Cl1-    0.012900    0.012900    0.197629    2.000000 Uiso  1.0000
 Cl4_A_n21_fault Cl1-    0.012900    0.012900    0.197629    2.000000 Uiso  1.0000
 Cl5_A_n21_fault Cl1-    0.487100    0.487100    0.202371    2.000000 Uiso  1.0000
 Cl6_A_n21_fault Cl1-    0.487100    0.487100    0.202371    2.000000 Uiso  1.0000
 Li1a_A_n21_fault Li+    0.250000    0.250000    0.200000    2.000000 Uiso  1.0000
 Li1b_A_n21_fault Li+    0.250000    0.250000    0.200000    2.000000 Uiso  1.0000
 Li2a_A_n21_fault Li+    0.750000    0.750000    0.205000    2.000000 Uiso  0.3650
 Li2b_A_n21_fault Li+    0.750000    0.750000    0.205000    2.000000 Uiso  0.3650
 Li3_A_n21_fault Li+    0.750000    0.750000    0.205000    2.000000 Uiso  0.2700
 Sc1_A_n22 Sc3+    0.000000    0.000000    0.210000    2.000000 Uiso  1.0000
 Cl1_A_n22 Cl1-    0.231300    0.231300    0.212313    2.000000 Uiso  1.0000
 Cl2_A_n22 Cl1-   -0.231300   -0.231300    0.207687    2.000000 Uiso  1.0000
 Cl3_A_n22 Cl1-   -0.237100   -0.237100    0.207629    2.000000 Uiso  1.0000
 Cl4_A_n22 Cl1-   -0.237100   -0.237100    0.207629    2.000000 Uiso  1.0000
 Cl5_A_n22 Cl1-    0.237100    0.237100    0.212371    2.000000 Uiso  1.0000
 Cl6_A_n22 Cl1-    0.237100    0.237100    0.212371    2.000000 Uiso  1.0000
 Li1a_A_n22 Li+    0.000000    0.000000    0.210000    2.000000 Uiso  1.0000
 Li1b_A_n22 Li+    0.000000    0.000000    0.210000    2.000000 Uiso  1.0000
 Li2a_A_n22 Li+    0.500000    0.500000    0.215000    2.000000 Uiso  0.3650
 Li2b_A_n22 Li+    0.500000    0.500000    0.215000    2.000000 Uiso  0.3650
 Li3_A_n22 Li+    0.500000    0.500000    0.215000    2.000000 Uiso  0.2700
 Sc1_A_n23 Sc3+    0.000000    0.000000    0.220000    2.000000 Uiso  1.0000
 Cl1_A_n23 Cl1-    0.231300    0.231300    0.222313    2.000000 Uiso  1.0000
 Cl2_A_n23 Cl1-   -0.231300   -0.231300    0.217687    2.000000 Uiso  1.0000
 Cl3_A_n23 Cl1-   -0.237100   -0.237100    0.217629    2.000000 Uiso  1.0000
 Cl4_A_n23 Cl1-   -0.237100   -0.237100    0.217629    2.000000 Uiso  1.0000
 Cl5_A_n23 Cl1-    0.237100    0.237100    0.222371    2.000000 Uiso  1.0000
 Cl6_A_n23 Cl1-    0.237100    0.237100    0.222371    2.000000 Uiso  1.0000
 Li1a_A_n23 Li+    0.000000    0.000000    0.220000    2.000000 Uiso  1.0000
 Li1b_A_n23 Li+    0.000000    0.000000    0.220000    2.000000 Uiso  1.0000
 Li2a_A_n23 Li+    0.500000    0.500000    0.225000    2.000000 Uiso  0.3650
 Li2b_A_n23 Li+    0.500000    0.500000    0.225000    2.000000 Uiso  0.3650
 Li3_A_n23 Li+    0.500000    0.500000    0.225000    2.000000 Uiso  0.2700
 Sc1_A_n24 Sc3+    0.000000    0.000000    0.230000    2.000000 Uiso  1.0000
 Cl1_A_n24 Cl1-    0.231300    0.231300    0.232313    2.000000 Uiso  1.0000
 Cl2_A_n24 Cl1-   -0.231300   -0.231300    0.227687    2.000000 Uiso  1.0000
 Cl3_A_n24 Cl1-   -0.237100   -0.237100    0.227629    2.000000 Uiso  1.0000
 Cl4_A_n24 Cl1-   -0.237100   -0.237100    0.227629    2.000000 Uiso  1.0000
 Cl5_A_n24 Cl1-    0.237100    0.237100    0.232371    2.000000 Uiso  1.0000
 Cl6_A_n24 Cl1-    0.237100    0.237100    0.232371    2.000000 Uiso  1.0000
 Li1a_A_n24 Li+    0.000000    0.000000    0.230000    2.000000 Uiso  1.0000
 Li1b_A_n24 Li+    0.000000    0.000000    0.230000    2.000000 Uiso  1.0000
 Li2a_A_n24 Li+    0.500000    0.500000    0.235000    2.000000 Uiso  0.3650
 Li2b_A_n24 Li+    0.500000    0.500000    0.235000    2.000000 Uiso  0.3650
 Li3_A_n24 Li+    0.500000    0.500000    0.235000    2.000000 Uiso  0.2700
 Sc1_A_n25 Sc3+    0.000000    0.000000    0.240000    2.000000 Uiso  1.0000
 Cl1_A_n25 Cl1-    0.231300    0.231300    0.242313    2.000000 Uiso  1.0000
 Cl2_A_n25 Cl1-   -0.231300   -0.231300    0.237687    2.000000 Uiso  1.0000
 Cl3_A_n25 Cl1-   -0.237100   -0.237100    0.237629    2.000000 Uiso  1.0000
 Cl4_A_n25 Cl1-   -0.237100   -0.237100    0.237629    2.000000 Uiso  1.0000
 Cl5_A_n25 Cl1-    0.237100    0.237100    0.242371    2.000000 Uiso  1.0000
 Cl6_A_n25 Cl1-    0.237100    0.237100    0.242371    2.000000 Uiso  1.0000
 Li1a_A_n25 Li+    0.000000    0.000000    0.240000    2.000000 Uiso  1.0000
 Li1b_A_n25 Li+    0.000000    0.000000    0.240000    2.000000 Uiso  1.0000
 Li2a_A_n25 Li+    0.500000    0.500000    0.245000    2.000000 Uiso  0.3650
 Li2b_A_n25 Li+    0.500000    0.500000    0.245000    2.000000 Uiso  0.3650
 Li3_A_n25 Li+    0.500000    0.500000    0.245000    2.000000 Uiso  0.2700
 Sc1_A_n26 Sc3+    0.000000    0.000000    0.250000    2.000000 Uiso  1.0000
 Cl1_A_n26 Cl1-    0.231300    0.231300    0.252313    2.000000 Uiso  1.0000
 Cl2_A_n26 Cl1-   -0.231300   -0.231300    0.247687    2.000000 Uiso  1.0000
 Cl3_A_n26 Cl1-   -0.237100   -0.237100    0.247629    2.000000 Uiso  1.0000
 Cl4_A_n26 Cl1-   -0.237100   -0.237100    0.247629    2.000000 Uiso  1.0000
 Cl5_A_n26 Cl1-    0.237100    0.237100    0.252371    2.000000 Uiso  1.0000
 Cl6_A_n26 Cl1-    0.237100    0.237100    0.252371    2.000000 Uiso  1.0000
 Li1a_A_n26 Li+    0.000000    0.000000    0.250000    2.000000 Uiso  1.0000
 Li1b_A_n26 Li+    0.000000    0.000000    0.250000    2.000000 Uiso  1.0000
 Li2a_A_n26 Li+    0.500000    0.500000    0.255000    2.000000 Uiso  0.3650
 Li2b_A_n26 Li+    0.500000    0.500000    0.255000    2.000000 Uiso  0.3650
 Li3_A_n26 Li+    0.500000    0.500000    0.255000    2.000000 Uiso  0.2700
 Sc1_A_n27 Sc3+    0.000000    0.000000    0.260000    2.000000 Uiso  1.0000
 Cl1_A_n27 Cl1-    0.231300    0.231300    0.262313    2.000000 Uiso  1.0000
 Cl2_A_n27 Cl1-   -0.231300   -0.231300    0.257687    2.000000 Uiso  1.0000
 Cl3_A_n27 Cl1-   -0.237100   -0.237100    0.257629    2.000000 Uiso  1.0000
 Cl4_A_n27 Cl1-   -0.237100   -0.237100    0.257629    2.000000 Uiso  1.0000
 Cl5_A_n27 Cl1-    0.237100    0.237100    0.262371    2.000000 Uiso  1.0000
 Cl6_A_n27 Cl1-    0.237100    0.237100    0.262371    2.000000 Uiso  1.0000
 Li1a_A_n27 Li+    0.000000    0.000000    0.260000    2.000000 Uiso  1.0000
 Li1b_A_n27 Li+    0.000000    0.000000    0.260000    2.000000 Uiso  1.0000
 Li2a_A_n27 Li+    0.500000    0.500000    0.265000    2.000000 Uiso  0.3650
 Li2b_A_n27 Li+    0.500000    0.500000    0.265000    2.000000 Uiso  0.3650
 Li3_A_n27 Li+    0.500000    0.500000    0.265000    2.000000 Uiso  0.2700
 Sc1_A_n28 Sc3+    0.000000    0.000000    0.270000    2.000000 Uiso  1.0000
 Cl1_A_n28 Cl1-    0.231300    0.231300    0.272313    2.000000 Uiso  1.0000
 Cl2_A_n28 Cl1-   -0.231300   -0.231300    0.267687    2.000000 Uiso  1.0000
 Cl3_A_n28 Cl1-   -0.237100   -0.237100    0.267629    2.000000 Uiso  1.0000
 Cl4_A_n28 Cl1-   -0.237100   -0.237100    0.267629    2.000000 Uiso  1.0000
 Cl5_A_n28 Cl1-    0.237100    0.237100    0.272371    2.000000 Uiso  1.0000
 Cl6_A_n28 Cl1-    0.237100    0.237100    0.272371    2.000000 Uiso  1.0000
 Li1a_A_n28 Li+    0.000000    0.000000    0.270000    2.000000 Uiso  1.0000
 Li1b_A_n28 Li+    0.000000    0.000000    0.270000    2.000000 Uiso  1.0000
 Li2a_A_n28 Li+    0.500000    0.500000    0.275000    2.000000 Uiso  0.3650
 Li2b_A_n28 Li+    0.500000    0.500000    0.275000    2.000000 Uiso  0.3650
 Li3_A_n28 Li+    0.500000    0.500000    0.275000    2.000000 Uiso  0.2700
 Sc1_A_n29 Sc3+    0.000000    0.000000    0.280000    2.000000 Uiso  1.0000
 Cl1_A_n29 Cl1-    0.231300    0.231300    0.282313    2.000000 Uiso  1.0000
 Cl2_A_n29 Cl1-   -0.231300   -0.231300    0.277687    2.000000 Uiso  1.0000
 Cl3_A_n29 Cl1-   -0.237100   -0.237100    0.277629    2.000000 Uiso  1.0000
 Cl4_A_n29 Cl1-   -0.237100   -0.237100    0.277629    2.000000 Uiso  1.0000
 Cl5_A_n29 Cl1-    0.237100    0.237100    0.282371    2.000000 Uiso  1.0000
 Cl6_A_n29 Cl1-    0.237100    0.237100    0.282371    2.000000 Uiso  1.0000
 Li1a_A_n29 Li+    0.000000    0.000000    0.280000    2.000000 Uiso  1.0000
 Li1b_A_n29 Li+    0.000000    0.000000    0.280000    2.000000 Uiso  1.0000
 Li2a_A_n29 Li+    0.500000    0.500000    0.285000    2.000000 Uiso  0.3650
 Li2b_A_n29 Li+    0.500000    0.500000    0.285000    2.000000 Uiso  0.3650
 Li3_A_n29 Li+    0.500000    0.500000    0.285000    2.000000 Uiso  0.2700
 Sc1_A_n30 Sc3+    0.000000    0.000000    0.290000    2.000000 Uiso  1.0000
 Cl1_A_n30 Cl1-    0.231300    0.231300    0.292313    2.000000 Uiso  1.0000
 Cl2_A_n30 Cl1-   -0.231300   -0.231300    0.287687    2.000000 Uiso  1.0000
 Cl3_A_n30 Cl1-   -0.237100   -0.237100    0.287629    2.000000 Uiso  1.0000
 Cl4_A_n30 Cl1-   -0.237100   -0.237100    0.287629    2.000000 Uiso  1.0000
 Cl5_A_n30 Cl1-    0.237100    0.237100    0.292371    2.000000 Uiso  1.0000
 Cl6_A_n30 Cl1-    0.237100    0.237100    0.292371    2.000000 Uiso  1.0000
 Li1a_A_n30 Li+    0.000000    0.000000    0.290000    2.000000 Uiso  1.0000
 Li1b_A_n30 Li+    0.000000    0.000000    0.290000    2.000000 Uiso  1.0000
 Li2a_A_n30 Li+    0.500000    0.500000    0.295000    2.000000 Uiso  0.3650
 Li2b_A_n30 Li+    0.500000    0.500000    0.295000    2.000000 Uiso  0.3650
 Li3_A_n30 Li+    0.500000    0.500000    0.295000    2.000000 Uiso  0.2700
 Sc1_A_n31 Sc3+    0.000000    0.000000    0.300000    2.000000 Uiso  1.0000
 Cl1_A_n31 Cl1-    0.231300    0.231300    0.302313    2.000000 Uiso  1.0000
 Cl2_A_n31 Cl1-   -0.231300   -0.231300    0.297687    2.000000 Uiso  1.0000
 Cl3_A_n31 Cl1-   -0.237100   -0.237100    0.297629    2.000000 Uiso  1.0000
 Cl4_A_n31 Cl1-   -0.237100   -0.237100    0.297629    2.000000 Uiso  1.0000
 Cl5_A_n31 Cl1-    0.237100    0.237100    0.302371    2.000000 Uiso  1.0000
 Cl6_A_n31 Cl1-    0.237100    0.237100    0.302371    2.000000 Uiso  1.0000
 Li1a_A_n31 Li+    0.000000    0.000000    0.300000    2.000000 Uiso  1.0000
 Li1b_A_n31 Li+    0.000000    0.000000    0.300000    2.000000 Uiso  1.0000
 Li2a_A_n31 Li+    0.500000    0.500000    0.305000    2.000000 Uiso  0.3650
 Li2b_A_n31 Li+    0.500000    0.500000    0.305000    2.000000 Uiso  0.3650
 Li3_A_n31 Li+    0.500000    0.500000    0.305000    2.000000 Uiso  0.2700
 Sc1_A_n32 Sc3+    0.000000    0.000000    0.310000    2.000000 Uiso  1.0000
 Cl1_A_n32 Cl1-    0.231300    0.231300    0.312313    2.000000 Uiso  1.0000
 Cl2_A_n32 Cl1-   -0.231300   -0.231300    0.307687    2.000000 Uiso  1.0000
 Cl3_A_n32 Cl1-   -0.237100   -0.237100    0.307629    2.000000 Uiso  1.0000
 Cl4_A_n32 Cl1-   -0.237100   -0.237100    0.307629    2.000000 Uiso  1.0000
 Cl5_A_n32 Cl1-    0.237100    0.237100    0.312371    2.000000 Uiso  1.0000
 Cl6_A_n32 Cl1-    0.237100    0.237100    0.312371    2.000000 Uiso  1.0000
 Li1a_A_n32 Li+    0.000000    0.000000    0.310000    2.000000 Uiso  1.0000
 Li1b_A_n32 Li+    0.000000    0.000000    0.310000    2.000000 Uiso  1.0000
 Li2a_A_n32 Li+    0.500000    0.500000    0.315000    2.000000 Uiso  0.3650
 Li2b_A_n32 Li+    0.500000    0.500000    0.315000    2.000000 Uiso  0.3650
 Li3_A_n32 Li+    0.500000    0.500000    0.315000    2.000000 Uiso  0.2700
 Sc1_A_n33 Sc3+    0.000000    0.000000    0.320000    2.000000 Uiso  1.0000
 Cl1_A_n33 Cl1-    0.231300    0.231300    0.322313    2.000000 Uiso  1.0000
 Cl2_A_n33 Cl1-   -0.231300   -0.231300    0.317687    2.000000 Uiso  1.0000
 Cl3_A_n33 Cl1-   -0.237100   -0.237100    0.317629    2.000000 Uiso  1.0000
 Cl4_A_n33 Cl1-   -0.237100   -0.237100    0.317629    2.000000 Uiso  1.0000
 Cl5_A_n33 Cl1-    0.237100    0.237100    0.322371    2.000000 Uiso  1.0000
 Cl6_A_n33 Cl1-    0.237100    0.237100    0.322371    2.000000 Uiso  1.0000
 Li1a_A_n33 Li+    0.000000    0.000000    0.320000    2.000000 Uiso  1.0000
 Li1b_A_n33 Li+    0.000000    0.000000    0.320000    2.000000 Uiso  1.0000
 Li2a_A_n33 Li+    0.500000    0.500000    0.325000    2.000000 Uiso  0.3650
 Li2b_A_n33 Li+    0.500000    0.500000    0.325000    2.000000 Uiso  0.3650
 Li3_A_n33 Li+    0.500000    0.500000    0.325000    2.000000 Uiso  0.2700
 Sc1_A_n34 Sc3+    0.000000    0.000000    0.330000    2.000000 Uiso  1.0000
 Cl1_A_n34 Cl1-    0.231300    0.231300    0.332313    2.000000 Uiso  1.0000
 Cl2_A_n34 Cl1-   -0.231300   -0.231300    0.327687    2.000000 Uiso  1.0000
 Cl3_A_n34 Cl1-   -0.237100   -0.237100    0.327629    2.000000 Uiso  1.0000
 Cl4_A_n34 Cl1-   -0.237100   -0.237100    0.327629    2.000000 Uiso  1.0000
 Cl5_A_n34 Cl1-    0.237100    0.237100    0.332371    2.000000 Uiso  1.0000
 Cl6_A_n34 Cl1-    0.237100    0.237100    0.332371    2.000000 Uiso  1.0000
 Li1a_A_n34 Li+    0.000000    0.000000    0.330000    2.000000 Uiso  1.0000
 Li1b_A_n34 Li+    0.000000    0.000000    0.330000    2.000000 Uiso  1.0000
 Li2a_A_n34 Li+    0.500000    0.500000    0.335000    2.000000 Uiso  0.3650
 Li2b_A_n34 Li+    0.500000    0.500000    0.335000    2.000000 Uiso  0.3650
 Li3_A_n34 Li+    0.500000    0.500000    0.335000    2.000000 Uiso  0.2700
 Sc1_A_n35_fault Sc3+    0.250000    0.250000    0.340000    2.000000 Uiso  1.0000
 Cl1_A_n35_fault Cl1-    0.481300    0.481300    0.342313    2.000000 Uiso  1.0000
 Cl2_A_n35_fault Cl1-    0.018700    0.018700    0.337687    2.000000 Uiso  1.0000
 Cl3_A_n35_fault Cl1-    0.012900    0.012900    0.337629    2.000000 Uiso  1.0000
 Cl4_A_n35_fault Cl1-    0.012900    0.012900    0.337629    2.000000 Uiso  1.0000
 Cl5_A_n35_fault Cl1-    0.487100    0.487100    0.342371    2.000000 Uiso  1.0000
 Cl6_A_n35_fault Cl1-    0.487100    0.487100    0.342371    2.000000 Uiso  1.0000
 Li1a_A_n35_fault Li+    0.250000    0.250000    0.340000    2.000000 Uiso  1.0000
 Li1b_A_n35_fault Li+    0.250000    0.250000    0.340000    2.000000 Uiso  1.0000
 Li2a_A_n35_fault Li+    0.750000    0.750000    0.345000    2.000000 Uiso  0.3650
 Li2b_A_n35_fault Li+    0.750000    0.750000    0.345000    2.000000 Uiso  0.3650
 Li3_A_n35_fault Li+    0.750000    0.750000    0.345000    2.000000 Uiso  0.2700
 Sc1_A_n36 Sc3+    0.000000    0.000000    0.350000    2.000000 Uiso  1.0000
 Cl1_A_n36 Cl1-    0.231300    0.231300    0.352313    2.000000 Uiso  1.0000
 Cl2_A_n36 Cl1-   -0.231300   -0.231300    0.347687    2.000000 Uiso  1.0000
 Cl3_A_n36 Cl1-   -0.237100   -0.237100    0.347629    2.000000 Uiso  1.0000
 Cl4_A_n36 Cl1-   -0.237100   -0.237100    0.347629    2.000000 Uiso  1.0000
 Cl5_A_n36 Cl1-    0.237100    0.237100    0.352371    2.000000 Uiso  1.0000
 Cl6_A_n36 Cl1-    0.237100    0.237100    0.352371    2.000000 Uiso  1.0000
 Li1a_A_n36 Li+    0.000000    0.000000    0.350000    2.000000 Uiso  1.0000
 Li1b_A_n36 Li+    0.000000    0.000000    0.350000    2.000000 Uiso  1.0000
 Li2a_A_n36 Li+    0.500000    0.500000    0.355000    2.000000 Uiso  0.3650
 Li2b_A_n36 Li+    0.500000    0.500000    0.355000    2.000000 Uiso  0.3650
 Li3_A_n36 Li+    0.500000    0.500000    0.355000    2.000000 Uiso  0.2700
 Sc1_A_n37_fault Sc3+    0.250000    0.250000    0.360000    2.000000 Uiso  1.0000
 Cl1_A_n37_fault Cl1-    0.481300    0.481300    0.362313    2.000000 Uiso  1.0000
 Cl2_A_n37_fault Cl1-    0.018700    0.018700    0.357687    2.000000 Uiso  1.0000
 Cl3_A_n37_fault Cl1-    0.012900    0.012900    0.357629    2.000000 Uiso  1.0000
 Cl4_A_n37_fault Cl1-    0.012900    0.012900    0.357629    2.000000 Uiso  1.0000
 Cl5_A_n37_fault Cl1-    0.487100    0.487100    0.362371    2.000000 Uiso  1.0000
 Cl6_A_n37_fault Cl1-    0.487100    0.487100    0.362371    2.000000 Uiso  1.0000
 Li1a_A_n37_fault Li+    0.250000    0.250000    0.360000    2.000000 Uiso  1.0000
 Li1b_A_n37_fault Li+    0.250000    0.250000    0.360000    2.000000 Uiso  1.0000
 Li2a_A_n37_fault Li+    0.750000    0.750000    0.365000    2.000000 Uiso  0.3650
 Li2b_A_n37_fault Li+    0.750000    0.750000    0.365000    2.000000 Uiso  0.3650
 Li3_A_n37_fault Li+    0.750000    0.750000    0.365000    2.000000 Uiso  0.2700
 Sc1_A_n38_fault Sc3+    0.250000    0.250000    0.370000    2.000000 Uiso  1.0000
 Cl1_A_n38_fault Cl1-    0.481300    0.481300    0.372313    2.000000 Uiso  1.0000
 Cl2_A_n38_fault Cl1-    0.018700    0.018700    0.367687    2.000000 Uiso  1.0000
 Cl3_A_n38_fault Cl1-    0.012900    0.012900    0.367629    2.000000 Uiso  1.0000
 Cl4_A_n38_fault Cl1-    0.012900    0.012900    0.367629    2.000000 Uiso  1.0000
 Cl5_A_n38_fault Cl1-    0.487100    0.487100    0.372371    2.000000 Uiso  1.0000
 Cl6_A_n38_fault Cl1-    0.487100    0.487100    0.372371    2.000000 Uiso  1.0000
 Li1a_A_n38_fault Li+    0.250000    0.250000    0.370000    2.000000 Uiso  1.0000
 Li1b_A_n38_fault Li+    0.250000    0.250000    0.370000    2.000000 Uiso  1.0000
 Li2a_A_n38_fault Li+    0.750000    0.750000    0.375000    2.000000 Uiso  0.3650
 Li2b_A_n38_fault Li+    0.750000    0.750000    0.375000    2.000000 Uiso  0.3650
 Li3_A_n38_fault Li+    0.750000    0.750000    0.375000    2.000000 Uiso  0.2700
 Sc1_A_n39 Sc3+    0.000000    0.000000    0.380000    2.000000 Uiso  1.0000
 Cl1_A_n39 Cl1-    0.231300    0.231300    0.382313    2.000000 Uiso  1.0000
 Cl2_A_n39 Cl1-   -0.231300   -0.231300    0.377687    2.000000 Uiso  1.0000
 Cl3_A_n39 Cl1-   -0.237100   -0.237100    0.377629    2.000000 Uiso  1.0000
 Cl4_A_n39 Cl1-   -0.237100   -0.237100    0.377629    2.000000 Uiso  1.0000
 Cl5_A_n39 Cl1-    0.237100    0.237100    0.382371    2.000000 Uiso  1.0000
 Cl6_A_n39 Cl1-    0.237100    0.237100    0.382371    2.000000 Uiso  1.0000
 Li1a_A_n39 Li+    0.000000    0.000000    0.380000    2.000000 Uiso  1.0000
 Li1b_A_n39 Li+    0.000000    0.000000    0.380000    2.000000 Uiso  1.0000
 Li2a_A_n39 Li+    0.500000    0.500000    0.385000    2.000000 Uiso  0.3650
 Li2b_A_n39 Li+    0.500000    0.500000    0.385000    2.000000 Uiso  0.3650
 Li3_A_n39 Li+    0.500000    0.500000    0.385000    2.000000 Uiso  0.2700
 Sc1_A_n40_fault Sc3+    0.250000    0.250000    0.390000    2.000000 Uiso  1.0000
 Cl1_A_n40_fault Cl1-    0.481300    0.481300    0.392313    2.000000 Uiso  1.0000
 Cl2_A_n40_fault Cl1-    0.018700    0.018700    0.387687    2.000000 Uiso  1.0000
 Cl3_A_n40_fault Cl1-    0.012900    0.012900    0.387629    2.000000 Uiso  1.0000
 Cl4_A_n40_fault Cl1-    0.012900    0.012900    0.387629    2.000000 Uiso  1.0000
 Cl5_A_n40_fault Cl1-    0.487100    0.487100    0.392371    2.000000 Uiso  1.0000
 Cl6_A_n40_fault Cl1-    0.487100    0.487100    0.392371    2.000000 Uiso  1.0000
 Li1a_A_n40_fault Li+    0.250000    0.250000    0.390000    2.000000 Uiso  1.0000
 Li1b_A_n40_fault Li+    0.250000    0.250000    0.390000    2.000000 Uiso  1.0000
 Li2a_A_n40_fault Li+    0.750000    0.750000    0.395000    2.000000 Uiso  0.3650
 Li2b_A_n40_fault Li+    0.750000    0.750000    0.395000    2.000000 Uiso  0.3650
 Li3_A_n40_fault Li+    0.750000    0.750000    0.395000    2.000000 Uiso  0.2700
 Sc1_A_n41 Sc3+    0.000000    0.000000    0.400000    2.000000 Uiso  1.0000
 Cl1_A_n41 Cl1-    0.231300    0.231300    0.402313    2.000000 Uiso  1.0000
 Cl2_A_n41 Cl1-   -0.231300   -0.231300    0.397687    2.000000 Uiso  1.0000
 Cl3_A_n41 Cl1-   -0.237100   -0.237100    0.397629    2.000000 Uiso  1.0000
 Cl4_A_n41 Cl1-   -0.237100   -0.237100    0.397629    2.000000 Uiso  1.0000
 Cl5_A_n41 Cl1-    0.237100    0.237100    0.402371    2.000000 Uiso  1.0000
 Cl6_A_n41 Cl1-    0.237100    0.237100    0.402371    2.000000 Uiso  1.0000
 Li1a_A_n41 Li+    0.000000    0.000000    0.400000    2.000000 Uiso  1.0000
 Li1b_A_n41 Li+    0.000000    0.000000    0.400000    2.000000 Uiso  1.0000
 Li2a_A_n41 Li+    0.500000    0.500000    0.405000    2.000000 Uiso  0.3650
 Li2b_A_n41 Li+    0.500000    0.500000    0.405000    2.000000 Uiso  0.3650
 Li3_A_n41 Li+    0.500000    0.500000    0.405000    2.000000 Uiso  0.2700
 Sc1_A_n42 Sc3+    0.000000    0.000000    0.410000    2.000000 Uiso  1.0000
 Cl1_A_n42 Cl1-    0.231300    0.231300    0.412313    2.000000 Uiso  1.0000
 Cl2_A_n42 Cl1-   -0.231300   -0.231300    0.407687    2.000000 Uiso  1.0000
 Cl3_A_n42 Cl1-   -0.237100   -0.237100    0.407629    2.000000 Uiso  1.0000
 Cl4_A_n42 Cl1-   -0.237100   -0.237100    0.407629    2.000000 Uiso  1.0000
 Cl5_A_n42 Cl1-    0.237100    0.237100    0.412371    2.000000 Uiso  1.0000
 Cl6_A_n42 Cl1-    0.237100    0.237100    0.412371    2.000000 Uiso  1.0000
 Li1a_A_n42 Li+    0.000000    0.000000    0.410000    2.000000 Uiso  1.0000
 Li1b_A_n42 Li+    0.000000    0.000000    0.410000    2.000000 Uiso  1.0000
 Li2a_A_n42 Li+    0.500000    0.500000    0.415000    2.000000 Uiso  0.3650
 Li2b_A_n42 Li+    0.500000    0.500000    0.415000    2.000000 Uiso  0.3650
 Li3_A_n42 Li+    0.500000    0.500000    0.415000    2.000000 Uiso  0.2700
 Sc1_A_n43 Sc3+    0.000000    0.000000    0.420000    2.000000 Uiso  1.0000
 Cl1_A_n43 Cl1-    0.231300    0.231300    0.422313    2.000000 Uiso  1.0000
 Cl2_A_n43 Cl1-   -0.231300   -0.231300    0.417687    2.000000 Uiso  1.0000
 Cl3_A_n43 Cl1-   -0.237100   -0.237100    0.417629    2.000000 Uiso  1.0000
 Cl4_A_n43 Cl1-   -0.237100   -0.237100    0.417629    2.000000 Uiso  1.0000
 Cl5_A_n43 Cl1-    0.237100    0.237100    0.422371    2.000000 Uiso  1.0000
 Cl6_A_n43 Cl1-    0.237100    0.237100    0.422371    2.000000 Uiso  1.0000
 Li1a_A_n43 Li+    0.000000    0.000000    0.420000    2.000000 Uiso  1.0000
 Li1b_A_n43 Li+    0.000000    0.000000    0.420000    2.000000 Uiso  1.0000
 Li2a_A_n43 Li+    0.500000    0.500000    0.425000    2.000000 Uiso  0.3650
 Li2b_A_n43 Li+    0.500000    0.500000    0.425000    2.000000 Uiso  0.3650
 Li3_A_n43 Li+    0.500000    0.500000    0.425000    2.000000 Uiso  0.2700
 Sc1_A_n44 Sc3+    0.000000    0.000000    0.430000    2.000000 Uiso  1.0000
 Cl1_A_n44 Cl1-    0.231300    0.231300    0.432313    2.000000 Uiso  1.0000
 Cl2_A_n44 Cl1-   -0.231300   -0.231300    0.427687    2.000000 Uiso  1.0000
 Cl3_A_n44 Cl1-   -0.237100   -0.237100    0.427629    2.000000 Uiso  1.0000
 Cl4_A_n44 Cl1-   -0.237100   -0.237100    0.427629    2.000000 Uiso  1.0000
 Cl5_A_n44 Cl1-    0.237100    0.237100    0.432371    2.000000 Uiso  1.0000
 Cl6_A_n44 Cl1-    0.237100    0.237100    0.432371    2.000000 Uiso  1.0000
 Li1a_A_n44 Li+    0.000000    0.000000    0.430000    2.000000 Uiso  1.0000
 Li1b_A_n44 Li+    0.000000    0.000000    0.430000    2.000000 Uiso  1.0000
 Li2a_A_n44 Li+    0.500000    0.500000    0.435000    2.000000 Uiso  0.3650
 Li2b_A_n44 Li+    0.500000    0.500000    0.435000    2.000000 Uiso  0.3650
 Li3_A_n44 Li+    0.500000    0.500000    0.435000    2.000000 Uiso  0.2700
 Sc1_A_n45 Sc3+    0.000000    0.000000    0.440000    2.000000 Uiso  1.0000
 Cl1_A_n45 Cl1-    0.231300    0.231300    0.442313    2.000000 Uiso  1.0000
 Cl2_A_n45 Cl1-   -0.231300   -0.231300    0.437687    2.000000 Uiso  1.0000
 Cl3_A_n45 Cl1-   -0.237100   -0.237100    0.437629    2.000000 Uiso  1.0000
 Cl4_A_n45 Cl1-   -0.237100   -0.237100    0.437629    2.000000 Uiso  1.0000
 Cl5_A_n45 Cl1-    0.237100    0.237100    0.442371    2.000000 Uiso  1.0000
 Cl6_A_n45 Cl1-    0.237100    0.237100    0.442371    2.000000 Uiso  1.0000
 Li1a_A_n45 Li+    0.000000    0.000000    0.440000    2.000000 Uiso  1.0000
 Li1b_A_n45 Li+    0.000000    0.000000    0.440000    2.000000 Uiso  1.0000
 Li2a_A_n45 Li+    0.500000    0.500000    0.445000    2.000000 Uiso  0.3650
 Li2b_A_n45 Li+    0.500000    0.500000    0.445000    2.000000 Uiso  0.3650
 Li3_A_n45 Li+    0.500000    0.500000    0.445000    2.000000 Uiso  0.2700
 Sc1_A_n46_fault Sc3+    0.250000    0.250000    0.450000    2.000000 Uiso  1.0000
 Cl1_A_n46_fault Cl1-    0.481300    0.481300    0.452313    2.000000 Uiso  1.0000
 Cl2_A_n46_fault Cl1-    0.018700    0.018700    0.447687    2.000000 Uiso  1.0000
 Cl3_A_n46_fault Cl1-    0.012900    0.012900    0.447629    2.000000 Uiso  1.0000
 Cl4_A_n46_fault Cl1-    0.012900    0.012900    0.447629    2.000000 Uiso  1.0000
 Cl5_A_n46_fault Cl1-    0.487100    0.487100    0.452371    2.000000 Uiso  1.0000
 Cl6_A_n46_fault Cl1-    0.487100    0.487100    0.452371    2.000000 Uiso  1.0000
 Li1a_A_n46_fault Li+    0.250000    0.250000    0.450000    2.000000 Uiso  1.0000
 Li1b_A_n46_fault Li+    0.250000    0.250000    0.450000    2.000000 Uiso  1.0000
 Li2a_A_n46_fault Li+    0.750000    0.750000    0.455000    2.000000 Uiso  0.3650
 Li2b_A_n46_fault Li+    0.750000    0.750000    0.455000    2.000000 Uiso  0.3650
 Li3_A_n46_fault Li+    0.750000    0.750000    0.455000    2.000000 Uiso  0.2700
 Sc1_A_n47_fault Sc3+    0.250000    0.250000    0.460000    2.000000 Uiso  1.0000
 Cl1_A_n47_fault Cl1-    0.481300    0.481300    0.462313    2.000000 Uiso  1.0000
 Cl2_A_n47_fault Cl1-    0.018700    0.018700    0.457687    2.000000 Uiso  1.0000
 Cl3_A_n47_fault Cl1-    0.012900    0.012900    0.457629    2.000000 Uiso  1.0000
 Cl4_A_n47_fault Cl1-    0.012900    0.012900    0.457629    2.000000 Uiso  1.0000
 Cl5_A_n47_fault Cl1-    0.487100    0.487100    0.462371    2.000000 Uiso  1.0000
 Cl6_A_n47_fault Cl1-    0.487100    0.487100    0.462371    2.000000 Uiso  1.0000
 Li1a_A_n47_fault Li+    0.250000    0.250000    0.460000    2.000000 Uiso  1.0000
 Li1b_A_n47_fault Li+    0.250000    0.250000    0.460000    2.000000 Uiso  1.0000
 Li2a_A_n47_fault Li+    0.750000    0.750000    0.465000    2.000000 Uiso  0.3650
 Li2b_A_n47_fault Li+    0.750000    0.750000    0.465000    2.000000 Uiso  0.3650
 Li3_A_n47_fault Li+    0.750000    0.750000    0.465000    2.000000 Uiso  0.2700
 Sc1_A_n48 Sc3+    0.000000    0.000000    0.470000    2.000000 Uiso  1.0000
 Cl1_A_n48 Cl1-    0.231300    0.231300    0.472313    2.000000 Uiso  1.0000
 Cl2_A_n48 Cl1-   -0.231300   -0.231300    0.467687    2.000000 Uiso  1.0000
 Cl3_A_n48 Cl1-   -0.237100   -0.237100    0.467629    2.000000 Uiso  1.0000
 Cl4_A_n48 Cl1-   -0.237100   -0.237100    0.467629    2.000000 Uiso  1.0000
 Cl5_A_n48 Cl1-    0.237100    0.237100    0.472371    2.000000 Uiso  1.0000
 Cl6_A_n48 Cl1-    0.237100    0.237100    0.472371    2.000000 Uiso  1.0000
 Li1a_A_n48 Li+    0.000000    0.000000    0.470000    2.000000 Uiso  1.0000
 Li1b_A_n48 Li+    0.000000    0.000000    0.470000    2.000000 Uiso  1.0000
 Li2a_A_n48 Li+    0.500000    0.500000    0.475000    2.000000 Uiso  0.3650
 Li2b_A_n48 Li+    0.500000    0.500000    0.475000    2.000000 Uiso  0.3650
 Li3_A_n48 Li+    0.500000    0.500000    0.475000    2.000000 Uiso  0.2700
 Sc1_A_n49 Sc3+    0.000000    0.000000    0.480000    2.000000 Uiso  1.0000
 Cl1_A_n49 Cl1-    0.231300    0.231300    0.482313    2.000000 Uiso  1.0000
 Cl2_A_n49 Cl1-   -0.231300   -0.231300    0.477687    2.000000 Uiso  1.0000
 Cl3_A_n49 Cl1-   -0.237100   -0.237100    0.477629    2.000000 Uiso  1.0000
 Cl4_A_n49 Cl1-   -0.237100   -0.237100    0.477629    2.000000 Uiso  1.0000
 Cl5_A_n49 Cl1-    0.237100    0.237100    0.482371    2.000000 Uiso  1.0000
 Cl6_A_n49 Cl1-    0.237100    0.237100    0.482371    2.000000 Uiso  1.0000
 Li1a_A_n49 Li+    0.000000    0.000000    0.480000    2.000000 Uiso  1.0000
 Li1b_A_n49 Li+    0.000000    0.000000    0.480000    2.000000 Uiso  1.0000
 Li2a_A_n49 Li+    0.500000    0.500000    0.485000    2.000000 Uiso  0.3650
 Li2b_A_n49 Li+    0.500000    0.500000    0.485000    2.000000 Uiso  0.3650
 Li3_A_n49 Li+    0.500000    0.500000    0.485000    2.000000 Uiso  0.2700
 Sc1_A_n50 Sc3+    0.000000    0.000000    0.490000    2.000000 Uiso  1.0000
 Cl1_A_n50 Cl1-    0.231300    0.231300    0.492313    2.000000 Uiso  1.0000
 Cl2_A_n50 Cl1-   -0.231300   -0.231300    0.487687    2.000000 Uiso  1.0000
 Cl3_A_n50 Cl1-   -0.237100   -0.237100    0.487629    2.000000 Uiso  1.0000
 Cl4_A_n50 Cl1-   -0.237100   -0.237100    0.487629    2.000000 Uiso  1.0000
 Cl5_A_n50 Cl1-    0.237100    0.237100    0.492371    2.000000 Uiso  1.0000
 Cl6_A_n50 Cl1-    0.237100    0.237100    0.492371    2.000000 Uiso  1.0000
 Li1a_A_n50 Li+    0.000000    0.000000    0.490000    2.000000 Uiso  1.0000
 Li1b_A_n50 Li+    0.000000    0.000000    0.490000    2.000000 Uiso  1.0000
 Li2a_A_n50 Li+    0.500000    0.500000    0.495000    2.000000 Uiso  0.3650
 Li2b_A_n50 Li+    0.500000    0.500000    0.495000    2.000000 Uiso  0.3650
 Li3_A_n50 Li+    0.500000    0.500000    0.495000    2.000000 Uiso  0.2700
 Sc1_A_n51_fault Sc3+    0.250000    0.250000    0.500000    2.000000 Uiso  1.0000
 Cl1_A_n51_fault Cl1-    0.481300    0.481300    0.502313    2.000000 Uiso  1.0000
 Cl2_A_n51_fault Cl1-    0.018700    0.018700    0.497687    2.000000 Uiso  1.0000
 Cl3_A_n51_fault Cl1-    0.012900    0.012900    0.497629    2.000000 Uiso  1.0000
 Cl4_A_n51_fault Cl1-    0.012900    0.012900    0.497629    2.000000 Uiso  1.0000
 Cl5_A_n51_fault Cl1-    0.487100    0.487100    0.502371    2.000000 Uiso  1.0000
 Cl6_A_n51_fault Cl1-    0.487100    0.487100    0.502371    2.000000 Uiso  1.0000
 Li1a_A_n51_fault Li+    0.250000    0.250000    0.500000    2.000000 Uiso  1.0000
 Li1b_A_n51_fault Li+    0.250000    0.250000    0.500000    2.000000 Uiso  1.0000
 Li2a_A_n51_fault Li+    0.750000    0.750000    0.505000    2.000000 Uiso  0.3650
 Li2b_A_n51_fault Li+    0.750000    0.750000    0.505000    2.000000 Uiso  0.3650
 Li3_A_n51_fault Li+    0.750000    0.750000    0.505000    2.000000 Uiso  0.2700
 Sc1_A_n52 Sc3+    0.000000    0.000000    0.510000    2.000000 Uiso  1.0000
 Cl1_A_n52 Cl1-    0.231300    0.231300    0.512313    2.000000 Uiso  1.0000
 Cl2_A_n52 Cl1-   -0.231300   -0.231300    0.507687    2.000000 Uiso  1.0000
 Cl3_A_n52 Cl1-   -0.237100   -0.237100    0.507629    2.000000 Uiso  1.0000
 Cl4_A_n52 Cl1-   -0.237100   -0.237100    0.507629    2.000000 Uiso  1.0000
 Cl5_A_n52 Cl1-    0.237100    0.237100    0.512371    2.000000 Uiso  1.0000
 Cl6_A_n52 Cl1-    0.237100    0.237100    0.512371    2.000000 Uiso  1.0000
 Li1a_A_n52 Li+    0.000000    0.000000    0.510000    2.000000 Uiso  1.0000
 Li1b_A_n52 Li+    0.000000    0.000000    0.510000    2.000000 Uiso  1.0000
 Li2a_A_n52 Li+    0.500000    0.500000    0.515000    2.000000 Uiso  0.3650
 Li2b_A_n52 Li+    0.500000    0.500000    0.515000    2.000000 Uiso  0.3650
 Li3_A_n52 Li+    0.500000    0.500000    0.515000    2.000000 Uiso  0.2700
 Sc1_A_n53 Sc3+    0.000000    0.000000    0.520000    2.000000 Uiso  1.0000
 Cl1_A_n53 Cl1-    0.231300    0.231300    0.522313    2.000000 Uiso  1.0000
 Cl2_A_n53 Cl1-   -0.231300   -0.231300    0.517687    2.000000 Uiso  1.0000
 Cl3_A_n53 Cl1-   -0.237100   -0.237100    0.517629    2.000000 Uiso  1.0000
 Cl4_A_n53 Cl1-   -0.237100   -0.237100    0.517629    2.000000 Uiso  1.0000
 Cl5_A_n53 Cl1-    0.237100    0.237100    0.522371    2.000000 Uiso  1.0000
 Cl6_A_n53 Cl1-    0.237100    0.237100    0.522371    2.000000 Uiso  1.0000
 Li1a_A_n53 Li+    0.000000    0.000000    0.520000    2.000000 Uiso  1.0000
 Li1b_A_n53 Li+    0.000000    0.000000    0.520000    2.000000 Uiso  1.0000
 Li2a_A_n53 Li+    0.500000    0.500000    0.525000    2.000000 Uiso  0.3650
 Li2b_A_n53 Li+    0.500000    0.500000    0.525000    2.000000 Uiso  0.3650
 Li3_A_n53 Li+    0.500000    0.500000    0.525000    2.000000 Uiso  0.2700
 Sc1_A_n54_fault Sc3+    0.250000    0.250000    0.530000    2.000000 Uiso  1.0000
 Cl1_A_n54_fault Cl1-    0.481300    0.481300    0.532313    2.000000 Uiso  1.0000
 Cl2_A_n54_fault Cl1-    0.018700    0.018700    0.527687    2.000000 Uiso  1.0000
 Cl3_A_n54_fault Cl1-    0.012900    0.012900    0.527629    2.000000 Uiso  1.0000
 Cl4_A_n54_fault Cl1-    0.012900    0.012900    0.527629    2.000000 Uiso  1.0000
 Cl5_A_n54_fault Cl1-    0.487100    0.487100    0.532371    2.000000 Uiso  1.0000
 Cl6_A_n54_fault Cl1-    0.487100    0.487100    0.532371    2.000000 Uiso  1.0000
 Li1a_A_n54_fault Li+    0.250000    0.250000    0.530000    2.000000 Uiso  1.0000
 Li1b_A_n54_fault Li+    0.250000    0.250000    0.530000    2.000000 Uiso  1.0000
 Li2a_A_n54_fault Li+    0.750000    0.750000    0.535000    2.000000 Uiso  0.3650
 Li2b_A_n54_fault Li+    0.750000    0.750000    0.535000    2.000000 Uiso  0.3650
 Li3_A_n54_fault Li+    0.750000    0.750000    0.535000    2.000000 Uiso  0.2700
 Sc1_A_n55 Sc3+    0.000000    0.000000    0.540000    2.000000 Uiso  1.0000
 Cl1_A_n55 Cl1-    0.231300    0.231300    0.542313    2.000000 Uiso  1.0000
 Cl2_A_n55 Cl1-   -0.231300   -0.231300    0.537687    2.000000 Uiso  1.0000
 Cl3_A_n55 Cl1-   -0.237100   -0.237100    0.537629    2.000000 Uiso  1.0000
 Cl4_A_n55 Cl1-   -0.237100   -0.237100    0.537629    2.000000 Uiso  1.0000
 Cl5_A_n55 Cl1-    0.237100    0.237100    0.542371    2.000000 Uiso  1.0000
 Cl6_A_n55 Cl1-    0.237100    0.237100    0.542371    2.000000 Uiso  1.0000
 Li1a_A_n55 Li+    0.000000    0.000000    0.540000    2.000000 Uiso  1.0000
 Li1b_A_n55 Li+    0.000000    0.000000    0.540000    2.000000 Uiso  1.0000
 Li2a_A_n55 Li+    0.500000    0.500000    0.545000    2.000000 Uiso  0.3650
 Li2b_A_n55 Li+    0.500000    0.500000    0.545000    2.000000 Uiso  0.3650
 Li3_A_n55 Li+    0.500000    0.500000    0.545000    2.000000 Uiso  0.2700
 Sc1_A_n56_fault Sc3+    0.250000    0.250000    0.550000    2.000000 Uiso  1.0000
 Cl1_A_n56_fault Cl1-    0.481300    0.481300    0.552313    2.000000 Uiso  1.0000
 Cl2_A_n56_fault Cl1-    0.018700    0.018700    0.547687    2.000000 Uiso  1.0000
 Cl3_A_n56_fault Cl1-    0.012900    0.012900    0.547629    2.000000 Uiso  1.0000
 Cl4_A_n56_fault Cl1-    0.012900    0.012900    0.547629    2.000000 Uiso  1.0000
 Cl5_A_n56_fault Cl1-    0.487100    0.487100    0.552371    2.000000 Uiso  1.0000
 Cl6_A_n56_fault Cl1-    0.487100    0.487100    0.552371    2.000000 Uiso  1.0000
 Li1a_A_n56_fault Li+    0.250000    0.250000    0.550000    2.000000 Uiso  1.0000
 Li1b_A_n56_fault Li+    0.250000    0.250000    0.550000    2.000000 Uiso  1.0000
 Li2a_A_n56_fault Li+    0.750000    0.750000    0.555000    2.000000 Uiso  0.3650
 Li2b_A_n56_fault Li+    0.750000    0.750000    0.555000    2.000000 Uiso  0.3650
 Li3_A_n56_fault Li+    0.750000    0.750000    0.555000    2.000000 Uiso  0.2700
 Sc1_A_n57 Sc3+    0.000000    0.000000    0.560000    2.000000 Uiso  1.0000
 Cl1_A_n57 Cl1-    0.231300    0.231300    0.562313    2.000000 Uiso  1.0000
 Cl2_A_n57 Cl1-   -0.231300   -0.231300    0.557687    2.000000 Uiso  1.0000
 Cl3_A_n57 Cl1-   -0.237100   -0.237100    0.557629    2.000000 Uiso  1.0000
 Cl4_A_n57 Cl1-   -0.237100   -0.237100    0.557629    2.000000 Uiso  1.0000
 Cl5_A_n57 Cl1-    0.237100    0.237100    0.562371    2.000000 Uiso  1.0000
 Cl6_A_n57 Cl1-    0.237100    0.237100    0.562371    2.000000 Uiso  1.0000
 Li1a_A_n57 Li+    0.000000    0.000000    0.560000    2.000000 Uiso  1.0000
 Li1b_A_n57 Li+    0.000000    0.000000    0.560000    2.000000 Uiso  1.0000
 Li2a_A_n57 Li+    0.500000    0.500000    0.565000    2.000000 Uiso  0.3650
 Li2b_A_n57 Li+    0.500000    0.500000    0.565000    2.000000 Uiso  0.3650
 Li3_A_n57 Li+    0.500000    0.500000    0.565000    2.000000 Uiso  0.2700
 Sc1_A_n58 Sc3+    0.000000    0.000000    0.570000    2.000000 Uiso  1.0000
 Cl1_A_n58 Cl1-    0.231300    0.231300    0.572313    2.000000 Uiso  1.0000
 Cl2_A_n58 Cl1-   -0.231300   -0.231300    0.567687    2.000000 Uiso  1.0000
 Cl3_A_n58 Cl1-   -0.237100   -0.237100    0.567629    2.000000 Uiso  1.0000
 Cl4_A_n58 Cl1-   -0.237100   -0.237100    0.567629    2.000000 Uiso  1.0000
 Cl5_A_n58 Cl1-    0.237100    0.237100    0.572371    2.000000 Uiso  1.0000
 Cl6_A_n58 Cl1-    0.237100    0.237100    0.572371    2.000000 Uiso  1.0000
 Li1a_A_n58 Li+    0.000000    0.000000    0.570000    2.000000 Uiso  1.0000
 Li1b_A_n58 Li+    0.000000    0.000000    0.570000    2.000000 Uiso  1.0000
 Li2a_A_n58 Li+    0.500000    0.500000    0.575000    2.000000 Uiso  0.3650
 Li2b_A_n58 Li+    0.500000    0.500000    0.575000    2.000000 Uiso  0.3650
 Li3_A_n58 Li+    0.500000    0.500000    0.575000    2.000000 Uiso  0.2700
 Sc1_A_n59 Sc3+    0.000000    0.000000    0.580000    2.000000 Uiso  1.0000
 Cl1_A_n59 Cl1-    0.231300    0.231300    0.582313    2.000000 Uiso  1.0000
 Cl2_A_n59 Cl1-   -0.231300   -0.231300    0.577687    2.000000 Uiso  1.0000
 Cl3_A_n59 Cl1-   -0.237100   -0.237100    0.577629    2.000000 Uiso  1.0000
 Cl4_A_n59 Cl1-   -0.237100   -0.237100    0.577629    2.000000 Uiso  1.0000
 Cl5_A_n59 Cl1-    0.237100    0.237100    0.582371    2.000000 Uiso  1.0000
 Cl6_A_n59 Cl1-    0.237100    0.237100    0.582371    2.000000 Uiso  1.0000
 Li1a_A_n59 Li+    0.000000    0.000000    0.580000    2.000000 Uiso  1.0000
 Li1b_A_n59 Li+    0.000000    0.000000    0.580000    2.000000 Uiso  1.0000
 Li2a_A_n59 Li+    0.500000    0.500000    0.585000    2.000000 Uiso  0.3650
 Li2b_A_n59 Li+    0.500000    0.500000    0.585000    2.000000 Uiso  0.3650
 Li3_A_n59 Li+    0.500000    0.500000    0.585000    2.000000 Uiso  0.2700
 Sc1_A_n60 Sc3+    0.000000    0.000000    0.590000    2.000000 Uiso  1.0000
 Cl1_A_n60 Cl1-    0.231300    0.231300    0.592313    2.000000 Uiso  1.0000
 Cl2_A_n60 Cl1-   -0.231300   -0.231300    0.587687    2.000000 Uiso  1.0000
 Cl3_A_n60 Cl1-   -0.237100   -0.237100    0.587629    2.000000 Uiso  1.0000
 Cl4_A_n60 Cl1-   -0.237100   -0.237100    0.587629    2.000000 Uiso  1.0000
 Cl5_A_n60 Cl1-    0.237100    0.237100    0.592371    2.000000 Uiso  1.0000
 Cl6_A_n60 Cl1-    0.237100    0.237100    0.592371    2.000000 Uiso  1.0000
 Li1a_A_n60 Li+    0.000000    0.000000    0.590000    2.000000 Uiso  1.0000
 Li1b_A_n60 Li+    0.000000    0.000000    0.590000    2.000000 Uiso  1.0000
 Li2a_A_n60 Li+    0.500000    0.500000    0.595000    2.000000 Uiso  0.3650
 Li2b_A_n60 Li+    0.500000    0.500000    0.595000    2.000000 Uiso  0.3650
 Li3_A_n60 Li+    0.500000    0.500000    0.595000    2.000000 Uiso  0.2700
 Sc1_A_n61 Sc3+    0.000000    0.000000    0.600000    2.000000 Uiso  1.0000
 Cl1_A_n61 Cl1-    0.231300    0.231300    0.602313    2.000000 Uiso  1.0000
 Cl2_A_n61 Cl1-   -0.231300   -0.231300    0.597687    2.000000 Uiso  1.0000
 Cl3_A_n61 Cl1-   -0.237100   -0.237100    0.597629    2.000000 Uiso  1.0000
 Cl4_A_n61 Cl1-   -0.237100   -0.237100    0.597629    2.000000 Uiso  1.0000
 Cl5_A_n61 Cl1-    0.237100    0.237100    0.602371    2.000000 Uiso  1.0000
 Cl6_A_n61 Cl1-    0.237100    0.237100    0.602371    2.000000 Uiso  1.0000
 Li1a_A_n61 Li+    0.000000    0.000000    0.600000    2.000000 Uiso  1.0000
 Li1b_A_n61 Li+    0.000000    0.000000    0.600000    2.000000 Uiso  1.0000
 Li2a_A_n61 Li+    0.500000    0.500000    0.605000    2.000000 Uiso  0.3650
 Li2b_A_n61 Li+    0.500000    0.500000    0.605000    2.000000 Uiso  0.3650
 Li3_A_n61 Li+    0.500000    0.500000    0.605000    2.000000 Uiso  0.2700
 Sc1_A_n62 Sc3+    0.000000    0.000000    0.610000    2.000000 Uiso  1.0000
 Cl1_A_n62 Cl1-    0.231300    0.231300    0.612313    2.000000 Uiso  1.0000
 Cl2_A_n62 Cl1-   -0.231300   -0.231300    0.607687    2.000000 Uiso  1.0000
 Cl3_A_n62 Cl1-   -0.237100   -0.237100    0.607629    2.000000 Uiso  1.0000
 Cl4_A_n62 Cl1-   -0.237100   -0.237100    0.607629    2.000000 Uiso  1.0000
 Cl5_A_n62 Cl1-    0.237100    0.237100    0.612371    2.000000 Uiso  1.0000
 Cl6_A_n62 Cl1-    0.237100    0.237100    0.612371    2.000000 Uiso  1.0000
 Li1a_A_n62 Li+    0.000000    0.000000    0.610000    2.000000 Uiso  1.0000
 Li1b_A_n62 Li+    0.000000    0.000000    0.610000    2.000000 Uiso  1.0000
 Li2a_A_n62 Li+    0.500000    0.500000    0.615000    2.000000 Uiso  0.3650
 Li2b_A_n62 Li+    0.500000    0.500000    0.615000    2.000000 Uiso  0.3650
 Li3_A_n62 Li+    0.500000    0.500000    0.615000    2.000000 Uiso  0.2700
 Sc1_A_n63 Sc3+    0.000000    0.000000    0.620000    2.000000 Uiso  1.0000
 Cl1_A_n63 Cl1-    0.231300    0.231300    0.622313    2.000000 Uiso  1.0000
 Cl2_A_n63 Cl1-   -0.231300   -0.231300    0.617687    2.000000 Uiso  1.0000
 Cl3_A_n63 Cl1-   -0.237100   -0.237100    0.617629    2.000000 Uiso  1.0000
 Cl4_A_n63 Cl1-   -0.237100   -0.237100    0.617629    2.000000 Uiso  1.0000
 Cl5_A_n63 Cl1-    0.237100    0.237100    0.622371    2.000000 Uiso  1.0000
 Cl6_A_n63 Cl1-    0.237100    0.237100    0.622371    2.000000 Uiso  1.0000
 Li1a_A_n63 Li+    0.000000    0.000000    0.620000    2.000000 Uiso  1.0000
 Li1b_A_n63 Li+    0.000000    0.000000    0.620000    2.000000 Uiso  1.0000
 Li2a_A_n63 Li+    0.500000    0.500000    0.625000    2.000000 Uiso  0.3650
 Li2b_A_n63 Li+    0.500000    0.500000    0.625000    2.000000 Uiso  0.3650
 Li3_A_n63 Li+    0.500000    0.500000    0.625000    2.000000 Uiso  0.2700
 Sc1_A_n64 Sc3+    0.000000    0.000000    0.630000    2.000000 Uiso  1.0000
 Cl1_A_n64 Cl1-    0.231300    0.231300    0.632313    2.000000 Uiso  1.0000
 Cl2_A_n64 Cl1-   -0.231300   -0.231300    0.627687    2.000000 Uiso  1.0000
 Cl3_A_n64 Cl1-   -0.237100   -0.237100    0.627629    2.000000 Uiso  1.0000
 Cl4_A_n64 Cl1-   -0.237100   -0.237100    0.627629    2.000000 Uiso  1.0000
 Cl5_A_n64 Cl1-    0.237100    0.237100    0.632371    2.000000 Uiso  1.0000
 Cl6_A_n64 Cl1-    0.237100    0.237100    0.632371    2.000000 Uiso  1.0000
 Li1a_A_n64 Li+    0.000000    0.000000    0.630000    2.000000 Uiso  1.0000
 Li1b_A_n64 Li+    0.000000    0.000000    0.630000    2.000000 Uiso  1.0000
 Li2a_A_n64 Li+    0.500000    0.500000    0.635000    2.000000 Uiso  0.3650
 Li2b_A_n64 Li+    0.500000    0.500000    0.635000    2.000000 Uiso  0.3650
 Li3_A_n64 Li+    0.500000    0.500000    0.635000    2.000000 Uiso  0.2700
 Sc1_A_n65_fault Sc3+    0.250000    0.250000    0.640000    2.000000 Uiso  1.0000
 Cl1_A_n65_fault Cl1-    0.481300    0.481300    0.642313    2.000000 Uiso  1.0000
 Cl2_A_n65_fault Cl1-    0.018700    0.018700    0.637687    2.000000 Uiso  1.0000
 Cl3_A_n65_fault Cl1-    0.012900    0.012900    0.637629    2.000000 Uiso  1.0000
 Cl4_A_n65_fault Cl1-    0.012900    0.012900    0.637629    2.000000 Uiso  1.0000
 Cl5_A_n65_fault Cl1-    0.487100    0.487100    0.642371    2.000000 Uiso  1.0000
 Cl6_A_n65_fault Cl1-    0.487100    0.487100    0.642371    2.000000 Uiso  1.0000
 Li1a_A_n65_fault Li+    0.250000    0.250000    0.640000    2.000000 Uiso  1.0000
 Li1b_A_n65_fault Li+    0.250000    0.250000    0.640000    2.000000 Uiso  1.0000
 Li2a_A_n65_fault Li+    0.750000    0.750000    0.645000    2.000000 Uiso  0.3650
 Li2b_A_n65_fault Li+    0.750000    0.750000    0.645000    2.000000 Uiso  0.3650
 Li3_A_n65_fault Li+    0.750000    0.750000    0.645000    2.000000 Uiso  0.2700
 Sc1_A_n66_fault Sc3+    0.250000    0.250000    0.650000    2.000000 Uiso  1.0000
 Cl1_A_n66_fault Cl1-    0.481300    0.481300    0.652313    2.000000 Uiso  1.0000
 Cl2_A_n66_fault Cl1-    0.018700    0.018700    0.647687    2.000000 Uiso  1.0000
 Cl3_A_n66_fault Cl1-    0.012900    0.012900    0.647629    2.000000 Uiso  1.0000
 Cl4_A_n66_fault Cl1-    0.012900    0.012900    0.647629    2.000000 Uiso  1.0000
 Cl5_A_n66_fault Cl1-    0.487100    0.487100    0.652371    2.000000 Uiso  1.0000
 Cl6_A_n66_fault Cl1-    0.487100    0.487100    0.652371    2.000000 Uiso  1.0000
 Li1a_A_n66_fault Li+    0.250000    0.250000    0.650000    2.000000 Uiso  1.0000
 Li1b_A_n66_fault Li+    0.250000    0.250000    0.650000    2.000000 Uiso  1.0000
 Li2a_A_n66_fault Li+    0.750000    0.750000    0.655000    2.000000 Uiso  0.3650
 Li2b_A_n66_fault Li+    0.750000    0.750000    0.655000    2.000000 Uiso  0.3650
 Li3_A_n66_fault Li+    0.750000    0.750000    0.655000    2.000000 Uiso  0.2700
 Sc1_A_n67 Sc3+    0.000000    0.000000    0.660000    2.000000 Uiso  1.0000
 Cl1_A_n67 Cl1-    0.231300    0.231300    0.662313    2.000000 Uiso  1.0000
 Cl2_A_n67 Cl1-   -0.231300   -0.231300    0.657687    2.000000 Uiso  1.0000
 Cl3_A_n67 Cl1-   -0.237100   -0.237100    0.657629    2.000000 Uiso  1.0000
 Cl4_A_n67 Cl1-   -0.237100   -0.237100    0.657629    2.000000 Uiso  1.0000
 Cl5_A_n67 Cl1-    0.237100    0.237100    0.662371    2.000000 Uiso  1.0000
 Cl6_A_n67 Cl1-    0.237100    0.237100    0.662371    2.000000 Uiso  1.0000
 Li1a_A_n67 Li+    0.000000    0.000000    0.660000    2.000000 Uiso  1.0000
 Li1b_A_n67 Li+    0.000000    0.000000    0.660000    2.000000 Uiso  1.0000
 Li2a_A_n67 Li+    0.500000    0.500000    0.665000    2.000000 Uiso  0.3650
 Li2b_A_n67 Li+    0.500000    0.500000    0.665000    2.000000 Uiso  0.3650
 Li3_A_n67 Li+    0.500000    0.500000    0.665000    2.000000 Uiso  0.2700
 Sc1_A_n68 Sc3+    0.000000    0.000000    0.670000    2.000000 Uiso  1.0000
 Cl1_A_n68 Cl1-    0.231300    0.231300    0.672313    2.000000 Uiso  1.0000
 Cl2_A_n68 Cl1-   -0.231300   -0.231300    0.667687    2.000000 Uiso  1.0000
 Cl3_A_n68 Cl1-   -0.237100   -0.237100    0.667629    2.000000 Uiso  1.0000
 Cl4_A_n68 Cl1-   -0.237100   -0.237100    0.667629    2.000000 Uiso  1.0000
 Cl5_A_n68 Cl1-    0.237100    0.237100    0.672371    2.000000 Uiso  1.0000
 Cl6_A_n68 Cl1-    0.237100    0.237100    0.672371    2.000000 Uiso  1.0000
 Li1a_A_n68 Li+    0.000000    0.000000    0.670000    2.000000 Uiso  1.0000
 Li1b_A_n68 Li+    0.000000    0.000000    0.670000    2.000000 Uiso  1.0000
 Li2a_A_n68 Li+    0.500000    0.500000    0.675000    2.000000 Uiso  0.3650
 Li2b_A_n68 Li+    0.500000    0.500000    0.675000    2.000000 Uiso  0.3650
 Li3_A_n68 Li+    0.500000    0.500000    0.675000    2.000000 Uiso  0.2700
 Sc1_A_n69 Sc3+    0.000000    0.000000    0.680000    2.000000 Uiso  1.0000
 Cl1_A_n69 Cl1-    0.231300    0.231300    0.682313    2.000000 Uiso  1.0000
 Cl2_A_n69 Cl1-   -0.231300   -0.231300    0.677687    2.000000 Uiso  1.0000
 Cl3_A_n69 Cl1-   -0.237100   -0.237100    0.677629    2.000000 Uiso  1.0000
 Cl4_A_n69 Cl1-   -0.237100   -0.237100    0.677629    2.000000 Uiso  1.0000
 Cl5_A_n69 Cl1-    0.237100    0.237100    0.682371    2.000000 Uiso  1.0000
 Cl6_A_n69 Cl1-    0.237100    0.237100    0.682371    2.000000 Uiso  1.0000
 Li1a_A_n69 Li+    0.000000    0.000000    0.680000    2.000000 Uiso  1.0000
 Li1b_A_n69 Li+    0.000000    0.000000    0.680000    2.000000 Uiso  1.0000
 Li2a_A_n69 Li+    0.500000    0.500000    0.685000    2.000000 Uiso  0.3650
 Li2b_A_n69 Li+    0.500000    0.500000    0.685000    2.000000 Uiso  0.3650
 Li3_A_n69 Li+    0.500000    0.500000    0.685000    2.000000 Uiso  0.2700
 Sc1_A_n70_fault Sc3+    0.250000    0.250000    0.690000    2.000000 Uiso  1.0000
 Cl1_A_n70_fault Cl1-    0.481300    0.481300    0.692313    2.000000 Uiso  1.0000
 Cl2_A_n70_fault Cl1-    0.018700    0.018700    0.687687    2.000000 Uiso  1.0000
 Cl3_A_n70_fault Cl1-    0.012900    0.012900    0.687629    2.000000 Uiso  1.0000
 Cl4_A_n70_fault Cl1-    0.012900    0.012900    0.687629    2.000000 Uiso  1.0000
 Cl5_A_n70_fault Cl1-    0.487100    0.487100    0.692371    2.000000 Uiso  1.0000
 Cl6_A_n70_fault Cl1-    0.487100    0.487100    0.692371    2.000000 Uiso  1.0000
 Li1a_A_n70_fault Li+    0.250000    0.250000    0.690000    2.000000 Uiso  1.0000
 Li1b_A_n70_fault Li+    0.250000    0.250000    0.690000    2.000000 Uiso  1.0000
 Li2a_A_n70_fault Li+    0.750000    0.750000    0.695000    2.000000 Uiso  0.3650
 Li2b_A_n70_fault Li+    0.750000    0.750000    0.695000    2.000000 Uiso  0.3650
 Li3_A_n70_fault Li+    0.750000    0.750000    0.695000    2.000000 Uiso  0.2700
 Sc1_A_n71 Sc3+    0.000000    0.000000    0.700000    2.000000 Uiso  1.0000
 Cl1_A_n71 Cl1-    0.231300    0.231300    0.702313    2.000000 Uiso  1.0000
 Cl2_A_n71 Cl1-   -0.231300   -0.231300    0.697687    2.000000 Uiso  1.0000
 Cl3_A_n71 Cl1-   -0.237100   -0.237100    0.697629    2.000000 Uiso  1.0000
 Cl4_A_n71 Cl1-   -0.237100   -0.237100    0.697629    2.000000 Uiso  1.0000
 Cl5_A_n71 Cl1-    0.237100    0.237100    0.702371    2.000000 Uiso  1.0000
 Cl6_A_n71 Cl1-    0.237100    0.237100    0.702371    2.000000 Uiso  1.0000
 Li1a_A_n71 Li+    0.000000    0.000000    0.700000    2.000000 Uiso  1.0000
 Li1b_A_n71 Li+    0.000000    0.000000    0.700000    2.000000 Uiso  1.0000
 Li2a_A_n71 Li+    0.500000    0.500000    0.705000    2.000000 Uiso  0.3650
 Li2b_A_n71 Li+    0.500000    0.500000    0.705000    2.000000 Uiso  0.3650
 Li3_A_n71 Li+    0.500000    0.500000    0.705000    2.000000 Uiso  0.2700
 Sc1_A_n72 Sc3+    0.000000    0.000000    0.710000    2.000000 Uiso  1.0000
 Cl1_A_n72 Cl1-    0.231300    0.231300    0.712313    2.000000 Uiso  1.0000
 Cl2_A_n72 Cl1-   -0.231300   -0.231300    0.707687    2.000000 Uiso  1.0000
 Cl3_A_n72 Cl1-   -0.237100   -0.237100    0.707629    2.000000 Uiso  1.0000
 Cl4_A_n72 Cl1-   -0.237100   -0.237100    0.707629    2.000000 Uiso  1.0000
 Cl5_A_n72 Cl1-    0.237100    0.237100    0.712371    2.000000 Uiso  1.0000
 Cl6_A_n72 Cl1-    0.237100    0.237100    0.712371    2.000000 Uiso  1.0000
 Li1a_A_n72 Li+    0.000000    0.000000    0.710000    2.000000 Uiso  1.0000
 Li1b_A_n72 Li+    0.000000    0.000000    0.710000    2.000000 Uiso  1.0000
 Li2a_A_n72 Li+    0.500000    0.500000    0.715000    2.000000 Uiso  0.3650
 Li2b_A_n72 Li+    0.500000    0.500000    0.715000    2.000000 Uiso  0.3650
 Li3_A_n72 Li+    0.500000    0.500000    0.715000    2.000000 Uiso  0.2700
 Sc1_A_n73 Sc3+    0.000000    0.000000    0.720000    2.000000 Uiso  1.0000
 Cl1_A_n73 Cl1-    0.231300    0.231300    0.722313    2.000000 Uiso  1.0000
 Cl2_A_n73 Cl1-   -0.231300   -0.231300    0.717687    2.000000 Uiso  1.0000
 Cl3_A_n73 Cl1-   -0.237100   -0.237100    0.717629    2.000000 Uiso  1.0000
 Cl4_A_n73 Cl1-   -0.237100   -0.237100    0.717629    2.000000 Uiso  1.0000
 Cl5_A_n73 Cl1-    0.237100    0.237100    0.722371    2.000000 Uiso  1.0000
 Cl6_A_n73 Cl1-    0.237100    0.237100    0.722371    2.000000 Uiso  1.0000
 Li1a_A_n73 Li+    0.000000    0.000000    0.720000    2.000000 Uiso  1.0000
 Li1b_A_n73 Li+    0.000000    0.000000    0.720000    2.000000 Uiso  1.0000
 Li2a_A_n73 Li+    0.500000    0.500000    0.725000    2.000000 Uiso  0.3650
 Li2b_A_n73 Li+    0.500000    0.500000    0.725000    2.000000 Uiso  0.3650
 Li3_A_n73 Li+    0.500000    0.500000    0.725000    2.000000 Uiso  0.2700
 Sc1_A_n74 Sc3+    0.000000    0.000000    0.730000    2.000000 Uiso  1.0000
 Cl1_A_n74 Cl1-    0.231300    0.231300    0.732313    2.000000 Uiso  1.0000
 Cl2_A_n74 Cl1-   -0.231300   -0.231300    0.727687    2.000000 Uiso  1.0000
 Cl3_A_n74 Cl1-   -0.237100   -0.237100    0.727629    2.000000 Uiso  1.0000
 Cl4_A_n74 Cl1-   -0.237100   -0.237100    0.727629    2.000000 Uiso  1.0000
 Cl5_A_n74 Cl1-    0.237100    0.237100    0.732371    2.000000 Uiso  1.0000
 Cl6_A_n74 Cl1-    0.237100    0.237100    0.732371    2.000000 Uiso  1.0000
 Li1a_A_n74 Li+    0.000000    0.000000    0.730000    2.000000 Uiso  1.0000
 Li1b_A_n74 Li+    0.000000    0.000000    0.730000    2.000000 Uiso  1.0000
 Li2a_A_n74 Li+    0.500000    0.500000    0.735000    2.000000 Uiso  0.3650
 Li2b_A_n74 Li+    0.500000    0.500000    0.735000    2.000000 Uiso  0.3650
 Li3_A_n74 Li+    0.500000    0.500000    0.735000    2.000000 Uiso  0.2700
 Sc1_A_n75 Sc3+    0.000000    0.000000    0.740000    2.000000 Uiso  1.0000
 Cl1_A_n75 Cl1-    0.231300    0.231300    0.742313    2.000000 Uiso  1.0000
 Cl2_A_n75 Cl1-   -0.231300   -0.231300    0.737687    2.000000 Uiso  1.0000
 Cl3_A_n75 Cl1-   -0.237100   -0.237100    0.737629    2.000000 Uiso  1.0000
 Cl4_A_n75 Cl1-   -0.237100   -0.237100    0.737629    2.000000 Uiso  1.0000
 Cl5_A_n75 Cl1-    0.237100    0.237100    0.742371    2.000000 Uiso  1.0000
 Cl6_A_n75 Cl1-    0.237100    0.237100    0.742371    2.000000 Uiso  1.0000
 Li1a_A_n75 Li+    0.000000    0.000000    0.740000    2.000000 Uiso  1.0000
 Li1b_A_n75 Li+    0.000000    0.000000    0.740000    2.000000 Uiso  1.0000
 Li2a_A_n75 Li+    0.500000    0.500000    0.745000    2.000000 Uiso  0.3650
 Li2b_A_n75 Li+    0.500000    0.500000    0.745000    2.000000 Uiso  0.3650
 Li3_A_n75 Li+    0.500000    0.500000    0.745000    2.000000 Uiso  0.2700
 Sc1_A_n76 Sc3+    0.000000    0.000000    0.750000    2.000000 Uiso  1.0000
 Cl1_A_n76 Cl1-    0.231300    0.231300    0.752313    2.000000 Uiso  1.0000
 Cl2_A_n76 Cl1-   -0.231300   -0.231300    0.747687    2.000000 Uiso  1.0000
 Cl3_A_n76 Cl1-   -0.237100   -0.237100    0.747629    2.000000 Uiso  1.0000
 Cl4_A_n76 Cl1-   -0.237100   -0.237100    0.747629    2.000000 Uiso  1.0000
 Cl5_A_n76 Cl1-    0.237100    0.237100    0.752371    2.000000 Uiso  1.0000
 Cl6_A_n76 Cl1-    0.237100    0.237100    0.752371    2.000000 Uiso  1.0000
 Li1a_A_n76 Li+    0.000000    0.000000    0.750000    2.000000 Uiso  1.0000
 Li1b_A_n76 Li+    0.000000    0.000000    0.750000    2.000000 Uiso  1.0000
 Li2a_A_n76 Li+    0.500000    0.500000    0.755000    2.000000 Uiso  0.3650
 Li2b_A_n76 Li+    0.500000    0.500000    0.755000    2.000000 Uiso  0.3650
 Li3_A_n76 Li+    0.500000    0.500000    0.755000    2.000000 Uiso  0.2700
 Sc1_A_n77 Sc3+    0.000000    0.000000    0.760000    2.000000 Uiso  1.0000
 Cl1_A_n77 Cl1-    0.231300    0.231300    0.762313    2.000000 Uiso  1.0000
 Cl2_A_n77 Cl1-   -0.231300   -0.231300    0.757687    2.000000 Uiso  1.0000
 Cl3_A_n77 Cl1-   -0.237100   -0.237100    0.757629    2.000000 Uiso  1.0000
 Cl4_A_n77 Cl1-   -0.237100   -0.237100    0.757629    2.000000 Uiso  1.0000
 Cl5_A_n77 Cl1-    0.237100    0.237100    0.762371    2.000000 Uiso  1.0000
 Cl6_A_n77 Cl1-    0.237100    0.237100    0.762371    2.000000 Uiso  1.0000
 Li1a_A_n77 Li+    0.000000    0.000000    0.760000    2.000000 Uiso  1.0000
 Li1b_A_n77 Li+    0.000000    0.000000    0.760000    2.000000 Uiso  1.0000
 Li2a_A_n77 Li+    0.500000    0.500000    0.765000    2.000000 Uiso  0.3650
 Li2b_A_n77 Li+    0.500000    0.500000    0.765000    2.000000 Uiso  0.3650
 Li3_A_n77 Li+    0.500000    0.500000    0.765000    2.000000 Uiso  0.2700
 Sc1_A_n78 Sc3+    0.000000    0.000000    0.770000    2.000000 Uiso  1.0000
 Cl1_A_n78 Cl1-    0.231300    0.231300    0.772313    2.000000 Uiso  1.0000
 Cl2_A_n78 Cl1-   -0.231300   -0.231300    0.767687    2.000000 Uiso  1.0000
 Cl3_A_n78 Cl1-   -0.237100   -0.237100    0.767629    2.000000 Uiso  1.0000
 Cl4_A_n78 Cl1-   -0.237100   -0.237100    0.767629    2.000000 Uiso  1.0000
 Cl5_A_n78 Cl1-    0.237100    0.237100    0.772371    2.000000 Uiso  1.0000
 Cl6_A_n78 Cl1-    0.237100    0.237100    0.772371    2.000000 Uiso  1.0000
 Li1a_A_n78 Li+    0.000000    0.000000    0.770000    2.000000 Uiso  1.0000
 Li1b_A_n78 Li+    0.000000    0.000000    0.770000    2.000000 Uiso  1.0000
 Li2a_A_n78 Li+    0.500000    0.500000    0.775000    2.000000 Uiso  0.3650
 Li2b_A_n78 Li+    0.500000    0.500000    0.775000    2.000000 Uiso  0.3650
 Li3_A_n78 Li+    0.500000    0.500000    0.775000    2.000000 Uiso  0.2700
 Sc1_A_n79 Sc3+    0.000000    0.000000    0.780000    2.000000 Uiso  1.0000
 Cl1_A_n79 Cl1-    0.231300    0.231300    0.782313    2.000000 Uiso  1.0000
 Cl2_A_n79 Cl1-   -0.231300   -0.231300    0.777687    2.000000 Uiso  1.0000
 Cl3_A_n79 Cl1-   -0.237100   -0.237100    0.777629    2.000000 Uiso  1.0000
 Cl4_A_n79 Cl1-   -0.237100   -0.237100    0.777629    2.000000 Uiso  1.0000
 Cl5_A_n79 Cl1-    0.237100    0.237100    0.782371    2.000000 Uiso  1.0000
 Cl6_A_n79 Cl1-    0.237100    0.237100    0.782371    2.000000 Uiso  1.0000
 Li1a_A_n79 Li+    0.000000    0.000000    0.780000    2.000000 Uiso  1.0000
 Li1b_A_n79 Li+    0.000000    0.000000    0.780000    2.000000 Uiso  1.0000
 Li2a_A_n79 Li+    0.500000    0.500000    0.785000    2.000000 Uiso  0.3650
 Li2b_A_n79 Li+    0.500000    0.500000    0.785000    2.000000 Uiso  0.3650
 Li3_A_n79 Li+    0.500000    0.500000    0.785000    2.000000 Uiso  0.2700
 Sc1_A_n80 Sc3+    0.000000    0.000000    0.790000    2.000000 Uiso  1.0000
 Cl1_A_n80 Cl1-    0.231300    0.231300    0.792313    2.000000 Uiso  1.0000
 Cl2_A_n80 Cl1-   -0.231300   -0.231300    0.787687    2.000000 Uiso  1.0000
 Cl3_A_n80 Cl1-   -0.237100   -0.237100    0.787629    2.000000 Uiso  1.0000
 Cl4_A_n80 Cl1-   -0.237100   -0.237100    0.787629    2.000000 Uiso  1.0000
 Cl5_A_n80 Cl1-    0.237100    0.237100    0.792371    2.000000 Uiso  1.0000
 Cl6_A_n80 Cl1-    0.237100    0.237100    0.792371    2.000000 Uiso  1.0000
 Li1a_A_n80 Li+    0.000000    0.000000    0.790000    2.000000 Uiso  1.0000
 Li1b_A_n80 Li+    0.000000    0.000000    0.790000    2.000000 Uiso  1.0000
 Li2a_A_n80 Li+    0.500000    0.500000    0.795000    2.000000 Uiso  0.3650
 Li2b_A_n80 Li+    0.500000    0.500000    0.795000    2.000000 Uiso  0.3650
 Li3_A_n80 Li+    0.500000    0.500000    0.795000    2.000000 Uiso  0.2700
 Sc1_A_n81 Sc3+    0.000000    0.000000    0.800000    2.000000 Uiso  1.0000
 Cl1_A_n81 Cl1-    0.231300    0.231300    0.802313    2.000000 Uiso  1.0000
 Cl2_A_n81 Cl1-   -0.231300   -0.231300    0.797687    2.000000 Uiso  1.0000
 Cl3_A_n81 Cl1-   -0.237100   -0.237100    0.797629    2.000000 Uiso  1.0000
 Cl4_A_n81 Cl1-   -0.237100   -0.237100    0.797629    2.000000 Uiso  1.0000
 Cl5_A_n81 Cl1-    0.237100    0.237100    0.802371    2.000000 Uiso  1.0000
 Cl6_A_n81 Cl1-    0.237100    0.237100    0.802371    2.000000 Uiso  1.0000
 Li1a_A_n81 Li+    0.000000    0.000000    0.800000    2.000000 Uiso  1.0000
 Li1b_A_n81 Li+    0.000000    0.000000    0.800000    2.000000 Uiso  1.0000
 Li2a_A_n81 Li+    0.500000    0.500000    0.805000    2.000000 Uiso  0.3650
 Li2b_A_n81 Li+    0.500000    0.500000    0.805000    2.000000 Uiso  0.3650
 Li3_A_n81 Li+    0.500000    0.500000    0.805000    2.000000 Uiso  0.2700
 Sc1_A_n82 Sc3+    0.000000    0.000000    0.810000    2.000000 Uiso  1.0000
 Cl1_A_n82 Cl1-    0.231300    0.231300    0.812313    2.000000 Uiso  1.0000
 Cl2_A_n82 Cl1-   -0.231300   -0.231300    0.807687    2.000000 Uiso  1.0000
 Cl3_A_n82 Cl1-   -0.237100   -0.237100    0.807629    2.000000 Uiso  1.0000
 Cl4_A_n82 Cl1-   -0.237100   -0.237100    0.807629    2.000000 Uiso  1.0000
 Cl5_A_n82 Cl1-    0.237100    0.237100    0.812371    2.000000 Uiso  1.0000
 Cl6_A_n82 Cl1-    0.237100    0.237100    0.812371    2.000000 Uiso  1.0000
 Li1a_A_n82 Li+    0.000000    0.000000    0.810000    2.000000 Uiso  1.0000
 Li1b_A_n82 Li+    0.000000    0.000000    0.810000    2.000000 Uiso  1.0000
 Li2a_A_n82 Li+    0.500000    0.500000    0.815000    2.000000 Uiso  0.3650
 Li2b_A_n82 Li+    0.500000    0.500000    0.815000    2.000000 Uiso  0.3650
 Li3_A_n82 Li+    0.500000    0.500000    0.815000    2.000000 Uiso  0.2700
 Sc1_A_n83 Sc3+    0.000000    0.000000    0.820000    2.000000 Uiso  1.0000
 Cl1_A_n83 Cl1-    0.231300    0.231300    0.822313    2.000000 Uiso  1.0000
 Cl2_A_n83 Cl1-   -0.231300   -0.231300    0.817687    2.000000 Uiso  1.0000
 Cl3_A_n83 Cl1-   -0.237100   -0.237100    0.817629    2.000000 Uiso  1.0000
 Cl4_A_n83 Cl1-   -0.237100   -0.237100    0.817629    2.000000 Uiso  1.0000
 Cl5_A_n83 Cl1-    0.237100    0.237100    0.822371    2.000000 Uiso  1.0000
 Cl6_A_n83 Cl1-    0.237100    0.237100    0.822371    2.000000 Uiso  1.0000
 Li1a_A_n83 Li+    0.000000    0.000000    0.820000    2.000000 Uiso  1.0000
 Li1b_A_n83 Li+    0.000000    0.000000    0.820000    2.000000 Uiso  1.0000
 Li2a_A_n83 Li+    0.500000    0.500000    0.825000    2.000000 Uiso  0.3650
 Li2b_A_n83 Li+    0.500000    0.500000    0.825000    2.000000 Uiso  0.3650
 Li3_A_n83 Li+    0.500000    0.500000    0.825000    2.000000 Uiso  0.2700
 Sc1_A_n84 Sc3+    0.000000    0.000000    0.830000    2.000000 Uiso  1.0000
 Cl1_A_n84 Cl1-    0.231300    0.231300    0.832313    2.000000 Uiso  1.0000
 Cl2_A_n84 Cl1-   -0.231300   -0.231300    0.827687    2.000000 Uiso  1.0000
 Cl3_A_n84 Cl1-   -0.237100   -0.237100    0.827629    2.000000 Uiso  1.0000
 Cl4_A_n84 Cl1-   -0.237100   -0.237100    0.827629    2.000000 Uiso  1.0000
 Cl5_A_n84 Cl1-    0.237100    0.237100    0.832371    2.000000 Uiso  1.0000
 Cl6_A_n84 Cl1-    0.237100    0.237100    0.832371    2.000000 Uiso  1.0000
 Li1a_A_n84 Li+    0.000000    0.000000    0.830000    2.000000 Uiso  1.0000
 Li1b_A_n84 Li+    0.000000    0.000000    0.830000    2.000000 Uiso  1.0000
 Li2a_A_n84 Li+    0.500000    0.500000    0.835000    2.000000 Uiso  0.3650
 Li2b_A_n84 Li+    0.500000    0.500000    0.835000    2.000000 Uiso  0.3650
 Li3_A_n84 Li+    0.500000    0.500000    0.835000    2.000000 Uiso  0.2700
 Sc1_A_n85_fault Sc3+    0.250000    0.250000    0.840000    2.000000 Uiso  1.0000
 Cl1_A_n85_fault Cl1-    0.481300    0.481300    0.842313    2.000000 Uiso  1.0000
 Cl2_A_n85_fault Cl1-    0.018700    0.018700    0.837687    2.000000 Uiso  1.0000
 Cl3_A_n85_fault Cl1-    0.012900    0.012900    0.837629    2.000000 Uiso  1.0000
 Cl4_A_n85_fault Cl1-    0.012900    0.012900    0.837629    2.000000 Uiso  1.0000
 Cl5_A_n85_fault Cl1-    0.487100    0.487100    0.842371    2.000000 Uiso  1.0000
 Cl6_A_n85_fault Cl1-    0.487100    0.487100    0.842371    2.000000 Uiso  1.0000
 Li1a_A_n85_fault Li+    0.250000    0.250000    0.840000    2.000000 Uiso  1.0000
 Li1b_A_n85_fault Li+    0.250000    0.250000    0.840000    2.000000 Uiso  1.0000
 Li2a_A_n85_fault Li+    0.750000    0.750000    0.845000    2.000000 Uiso  0.3650
 Li2b_A_n85_fault Li+    0.750000    0.750000    0.845000    2.000000 Uiso  0.3650
 Li3_A_n85_fault Li+    0.750000    0.750000    0.845000    2.000000 Uiso  0.2700
 Sc1_A_n86 Sc3+    0.000000    0.000000    0.850000    2.000000 Uiso  1.0000
 Cl1_A_n86 Cl1-    0.231300    0.231300    0.852313    2.000000 Uiso  1.0000
 Cl2_A_n86 Cl1-   -0.231300   -0.231300    0.847687    2.000000 Uiso  1.0000
 Cl3_A_n86 Cl1-   -0.237100   -0.237100    0.847629    2.000000 Uiso  1.0000
 Cl4_A_n86 Cl1-   -0.237100   -0.237100    0.847629    2.000000 Uiso  1.0000
 Cl5_A_n86 Cl1-    0.237100    0.237100    0.852371    2.000000 Uiso  1.0000
 Cl6_A_n86 Cl1-    0.237100    0.237100    0.852371    2.000000 Uiso  1.0000
 Li1a_A_n86 Li+    0.000000    0.000000    0.850000    2.000000 Uiso  1.0000
 Li1b_A_n86 Li+    0.000000    0.000000    0.850000    2.000000 Uiso  1.0000
 Li2a_A_n86 Li+    0.500000    0.500000    0.855000    2.000000 Uiso  0.3650
 Li2b_A_n86 Li+    0.500000    0.500000    0.855000    2.000000 Uiso  0.3650
 Li3_A_n86 Li+    0.500000    0.500000    0.855000    2.000000 Uiso  0.2700
 Sc1_A_n87 Sc3+    0.000000    0.000000    0.860000    2.000000 Uiso  1.0000
 Cl1_A_n87 Cl1-    0.231300    0.231300    0.862313    2.000000 Uiso  1.0000
 Cl2_A_n87 Cl1-   -0.231300   -0.231300    0.857687    2.000000 Uiso  1.0000
 Cl3_A_n87 Cl1-   -0.237100   -0.237100    0.857629    2.000000 Uiso  1.0000
 Cl4_A_n87 Cl1-   -0.237100   -0.237100    0.857629    2.000000 Uiso  1.0000
 Cl5_A_n87 Cl1-    0.237100    0.237100    0.862371    2.000000 Uiso  1.0000
 Cl6_A_n87 Cl1-    0.237100    0.237100    0.862371    2.000000 Uiso  1.0000
 Li1a_A_n87 Li+    0.000000    0.000000    0.860000    2.000000 Uiso  1.0000
 Li1b_A_n87 Li+    0.000000    0.000000    0.860000    2.000000 Uiso  1.0000
 Li2a_A_n87 Li+    0.500000    0.500000    0.865000    2.000000 Uiso  0.3650
 Li2b_A_n87 Li+    0.500000    0.500000    0.865000    2.000000 Uiso  0.3650
 Li3_A_n87 Li+    0.500000    0.500000    0.865000    2.000000 Uiso  0.2700
 Sc1_A_n88 Sc3+    0.000000    0.000000    0.870000    2.000000 Uiso  1.0000
 Cl1_A_n88 Cl1-    0.231300    0.231300    0.872313    2.000000 Uiso  1.0000
 Cl2_A_n88 Cl1-   -0.231300   -0.231300    0.867687    2.000000 Uiso  1.0000
 Cl3_A_n88 Cl1-   -0.237100   -0.237100    0.867629    2.000000 Uiso  1.0000
 Cl4_A_n88 Cl1-   -0.237100   -0.237100    0.867629    2.000000 Uiso  1.0000
 Cl5_A_n88 Cl1-    0.237100    0.237100    0.872371    2.000000 Uiso  1.0000
 Cl6_A_n88 Cl1-    0.237100    0.237100    0.872371    2.000000 Uiso  1.0000
 Li1a_A_n88 Li+    0.000000    0.000000    0.870000    2.000000 Uiso  1.0000
 Li1b_A_n88 Li+    0.000000    0.000000    0.870000    2.000000 Uiso  1.0000
 Li2a_A_n88 Li+    0.500000    0.500000    0.875000    2.000000 Uiso  0.3650
 Li2b_A_n88 Li+    0.500000    0.500000    0.875000    2.000000 Uiso  0.3650
 Li3_A_n88 Li+    0.500000    0.500000    0.875000    2.000000 Uiso  0.2700
 Sc1_A_n89_fault Sc3+    0.250000    0.250000    0.880000    2.000000 Uiso  1.0000
 Cl1_A_n89_fault Cl1-    0.481300    0.481300    0.882313    2.000000 Uiso  1.0000
 Cl2_A_n89_fault Cl1-    0.018700    0.018700    0.877687    2.000000 Uiso  1.0000
 Cl3_A_n89_fault Cl1-    0.012900    0.012900    0.877629    2.000000 Uiso  1.0000
 Cl4_A_n89_fault Cl1-    0.012900    0.012900    0.877629    2.000000 Uiso  1.0000
 Cl5_A_n89_fault Cl1-    0.487100    0.487100    0.882371    2.000000 Uiso  1.0000
 Cl6_A_n89_fault Cl1-    0.487100    0.487100    0.882371    2.000000 Uiso  1.0000
 Li1a_A_n89_fault Li+    0.250000    0.250000    0.880000    2.000000 Uiso  1.0000
 Li1b_A_n89_fault Li+    0.250000    0.250000    0.880000    2.000000 Uiso  1.0000
 Li2a_A_n89_fault Li+    0.750000    0.750000    0.885000    2.000000 Uiso  0.3650
 Li2b_A_n89_fault Li+    0.750000    0.750000    0.885000    2.000000 Uiso  0.3650
 Li3_A_n89_fault Li+    0.750000    0.750000    0.885000    2.000000 Uiso  0.2700
 Sc1_A_n90_fault Sc3+    0.250000    0.250000    0.890000    2.000000 Uiso  1.0000
 Cl1_A_n90_fault Cl1-    0.481300    0.481300    0.892313    2.000000 Uiso  1.0000
 Cl2_A_n90_fault Cl1-    0.018700    0.018700    0.887687    2.000000 Uiso  1.0000
 Cl3_A_n90_fault Cl1-    0.012900    0.012900    0.887629    2.000000 Uiso  1.0000
 Cl4_A_n90_fault Cl1-    0.012900    0.012900    0.887629    2.000000 Uiso  1.0000
 Cl5_A_n90_fault Cl1-    0.487100    0.487100    0.892371    2.000000 Uiso  1.0000
 Cl6_A_n90_fault Cl1-    0.487100    0.487100    0.892371    2.000000 Uiso  1.0000
 Li1a_A_n90_fault Li+    0.250000    0.250000    0.890000    2.000000 Uiso  1.0000
 Li1b_A_n90_fault Li+    0.250000    0.250000    0.890000    2.000000 Uiso  1.0000
 Li2a_A_n90_fault Li+    0.750000    0.750000    0.895000    2.000000 Uiso  0.3650
 Li2b_A_n90_fault Li+    0.750000    0.750000    0.895000    2.000000 Uiso  0.3650
 Li3_A_n90_fault Li+    0.750000    0.750000    0.895000    2.000000 Uiso  0.2700
 Sc1_A_n91 Sc3+    0.000000    0.000000    0.900000    2.000000 Uiso  1.0000
 Cl1_A_n91 Cl1-    0.231300    0.231300    0.902313    2.000000 Uiso  1.0000
 Cl2_A_n91 Cl1-   -0.231300   -0.231300    0.897687    2.000000 Uiso  1.0000
 Cl3_A_n91 Cl1-   -0.237100   -0.237100    0.897629    2.000000 Uiso  1.0000
 Cl4_A_n91 Cl1-   -0.237100   -0.237100    0.897629    2.000000 Uiso  1.0000
 Cl5_A_n91 Cl1-    0.237100    0.237100    0.902371    2.000000 Uiso  1.0000
 Cl6_A_n91 Cl1-    0.237100    0.237100    0.902371    2.000000 Uiso  1.0000
 Li1a_A_n91 Li+    0.000000    0.000000    0.900000    2.000000 Uiso  1.0000
 Li1b_A_n91 Li+    0.000000    0.000000    0.900000    2.000000 Uiso  1.0000
 Li2a_A_n91 Li+    0.500000    0.500000    0.905000    2.000000 Uiso  0.3650
 Li2b_A_n91 Li+    0.500000    0.500000    0.905000    2.000000 Uiso  0.3650
 Li3_A_n91 Li+    0.500000    0.500000    0.905000    2.000000 Uiso  0.2700
 Sc1_A_n92_fault Sc3+    0.250000    0.250000    0.910000    2.000000 Uiso  1.0000
 Cl1_A_n92_fault Cl1-    0.481300    0.481300    0.912313    2.000000 Uiso  1.0000
 Cl2_A_n92_fault Cl1-    0.018700    0.018700    0.907687    2.000000 Uiso  1.0000
 Cl3_A_n92_fault Cl1-    0.012900    0.012900    0.907629    2.000000 Uiso  1.0000
 Cl4_A_n92_fault Cl1-    0.012900    0.012900    0.907629    2.000000 Uiso  1.0000
 Cl5_A_n92_fault Cl1-    0.487100    0.487100    0.912371    2.000000 Uiso  1.0000
 Cl6_A_n92_fault Cl1-    0.487100    0.487100    0.912371    2.000000 Uiso  1.0000
 Li1a_A_n92_fault Li+    0.250000    0.250000    0.910000    2.000000 Uiso  1.0000
 Li1b_A_n92_fault Li+    0.250000    0.250000    0.910000    2.000000 Uiso  1.0000
 Li2a_A_n92_fault Li+    0.750000    0.750000    0.915000    2.000000 Uiso  0.3650
 Li2b_A_n92_fault Li+    0.750000    0.750000    0.915000    2.000000 Uiso  0.3650
 Li3_A_n92_fault Li+    0.750000    0.750000    0.915000    2.000000 Uiso  0.2700
 Sc1_A_n93 Sc3+    0.000000    0.000000    0.920000    2.000000 Uiso  1.0000
 Cl1_A_n93 Cl1-    0.231300    0.231300    0.922313    2.000000 Uiso  1.0000
 Cl2_A_n93 Cl1-   -0.231300   -0.231300    0.917687    2.000000 Uiso  1.0000
 Cl3_A_n93 Cl1-   -0.237100   -0.237100    0.917629    2.000000 Uiso  1.0000
 Cl4_A_n93 Cl1-   -0.237100   -0.237100    0.917629    2.000000 Uiso  1.0000
 Cl5_A_n93 Cl1-    0.237100    0.237100    0.922371    2.000000 Uiso  1.0000
 Cl6_A_n93 Cl1-    0.237100    0.237100    0.922371    2.000000 Uiso  1.0000
 Li1a_A_n93 Li+    0.000000    0.000000    0.920000    2.000000 Uiso  1.0000
 Li1b_A_n93 Li+    0.000000    0.000000    0.920000    2.000000 Uiso  1.0000
 Li2a_A_n93 Li+    0.500000    0.500000    0.925000    2.000000 Uiso  0.3650
 Li2b_A_n93 Li+    0.500000    0.500000    0.925000    2.000000 Uiso  0.3650
 Li3_A_n93 Li+    0.500000    0.500000    0.925000    2.000000 Uiso  0.2700
 Sc1_A_n94 Sc3+    0.000000    0.000000    0.930000    2.000000 Uiso  1.0000
 Cl1_A_n94 Cl1-    0.231300    0.231300    0.932313    2.000000 Uiso  1.0000
 Cl2_A_n94 Cl1-   -0.231300   -0.231300    0.927687    2.000000 Uiso  1.0000
 Cl3_A_n94 Cl1-   -0.237100   -0.237100    0.927629    2.000000 Uiso  1.0000
 Cl4_A_n94 Cl1-   -0.237100   -0.237100    0.927629    2.000000 Uiso  1.0000
 Cl5_A_n94 Cl1-    0.237100    0.237100    0.932371    2.000000 Uiso  1.0000
 Cl6_A_n94 Cl1-    0.237100    0.237100    0.932371    2.000000 Uiso  1.0000
 Li1a_A_n94 Li+    0.000000    0.000000    0.930000    2.000000 Uiso  1.0000
 Li1b_A_n94 Li+    0.000000    0.000000    0.930000    2.000000 Uiso  1.0000
 Li2a_A_n94 Li+    0.500000    0.500000    0.935000    2.000000 Uiso  0.3650
 Li2b_A_n94 Li+    0.500000    0.500000    0.935000    2.000000 Uiso  0.3650
 Li3_A_n94 Li+    0.500000    0.500000    0.935000    2.000000 Uiso  0.2700
 Sc1_A_n95 Sc3+    0.000000    0.000000    0.940000    2.000000 Uiso  1.0000
 Cl1_A_n95 Cl1-    0.231300    0.231300    0.942313    2.000000 Uiso  1.0000
 Cl2_A_n95 Cl1-   -0.231300   -0.231300    0.937687    2.000000 Uiso  1.0000
 Cl3_A_n95 Cl1-   -0.237100   -0.237100    0.937629    2.000000 Uiso  1.0000
 Cl4_A_n95 Cl1-   -0.237100   -0.237100    0.937629    2.000000 Uiso  1.0000
 Cl5_A_n95 Cl1-    0.237100    0.237100    0.942371    2.000000 Uiso  1.0000
 Cl6_A_n95 Cl1-    0.237100    0.237100    0.942371    2.000000 Uiso  1.0000
 Li1a_A_n95 Li+    0.000000    0.000000    0.940000    2.000000 Uiso  1.0000
 Li1b_A_n95 Li+    0.000000    0.000000    0.940000    2.000000 Uiso  1.0000
 Li2a_A_n95 Li+    0.500000    0.500000    0.945000    2.000000 Uiso  0.3650
 Li2b_A_n95 Li+    0.500000    0.500000    0.945000    2.000000 Uiso  0.3650
 Li3_A_n95 Li+    0.500000    0.500000    0.945000    2.000000 Uiso  0.2700
 Sc1_A_n96 Sc3+    0.000000    0.000000    0.950000    2.000000 Uiso  1.0000
 Cl1_A_n96 Cl1-    0.231300    0.231300    0.952313    2.000000 Uiso  1.0000
 Cl2_A_n96 Cl1-   -0.231300   -0.231300    0.947687    2.000000 Uiso  1.0000
 Cl3_A_n96 Cl1-   -0.237100   -0.237100    0.947629    2.000000 Uiso  1.0000
 Cl4_A_n96 Cl1-   -0.237100   -0.237100    0.947629    2.000000 Uiso  1.0000
 Cl5_A_n96 Cl1-    0.237100    0.237100    0.952371    2.000000 Uiso  1.0000
 Cl6_A_n96 Cl1-    0.237100    0.237100    0.952371    2.000000 Uiso  1.0000
 Li1a_A_n96 Li+    0.000000    0.000000    0.950000    2.000000 Uiso  1.0000
 Li1b_A_n96 Li+    0.000000    0.000000    0.950000    2.000000 Uiso  1.0000
 Li2a_A_n96 Li+    0.500000    0.500000    0.955000    2.000000 Uiso  0.3650
 Li2b_A_n96 Li+    0.500000    0.500000    0.955000    2.000000 Uiso  0.3650
 Li3_A_n96 Li+    0.500000    0.500000    0.955000    2.000000 Uiso  0.2700
 Sc1_A_n97 Sc3+    0.000000    0.000000    0.960000    2.000000 Uiso  1.0000
 Cl1_A_n97 Cl1-    0.231300    0.231300    0.962313    2.000000 Uiso  1.0000
 Cl2_A_n97 Cl1-   -0.231300   -0.231300    0.957687    2.000000 Uiso  1.0000
 Cl3_A_n97 Cl1-   -0.237100   -0.237100    0.957629    2.000000 Uiso  1.0000
 Cl4_A_n97 Cl1-   -0.237100   -0.237100    0.957629    2.000000 Uiso  1.0000
 Cl5_A_n97 Cl1-    0.237100    0.237100    0.962371    2.000000 Uiso  1.0000
 Cl6_A_n97 Cl1-    0.237100    0.237100    0.962371    2.000000 Uiso  1.0000
 Li1a_A_n97 Li+    0.000000    0.000000    0.960000    2.000000 Uiso  1.0000
 Li1b_A_n97 Li+    0.000000    0.000000    0.960000    2.000000 Uiso  1.0000
 Li2a_A_n97 Li+    0.500000    0.500000    0.965000    2.000000 Uiso  0.3650
 Li2b_A_n97 Li+    0.500000    0.500000    0.965000    2.000000 Uiso  0.3650
 Li3_A_n97 Li+    0.500000    0.500000    0.965000    2.000000 Uiso  0.2700
 Sc1_A_n98 Sc3+    0.000000    0.000000    0.970000    2.000000 Uiso  1.0000
 Cl1_A_n98 Cl1-    0.231300    0.231300    0.972313    2.000000 Uiso  1.0000
 Cl2_A_n98 Cl1-   -0.231300   -0.231300    0.967687    2.000000 Uiso  1.0000
 Cl3_A_n98 Cl1-   -0.237100   -0.237100    0.967629    2.000000 Uiso  1.0000
 Cl4_A_n98 Cl1-   -0.237100   -0.237100    0.967629    2.000000 Uiso  1.0000
 Cl5_A_n98 Cl1-    0.237100    0.237100    0.972371    2.000000 Uiso  1.0000
 Cl6_A_n98 Cl1-    0.237100    0.237100    0.972371    2.000000 Uiso  1.0000
 Li1a_A_n98 Li+    0.000000    0.000000    0.970000    2.000000 Uiso  1.0000
 Li1b_A_n98 Li+    0.000000    0.000000    0.970000    2.000000 Uiso  1.0000
 Li2a_A_n98 Li+    0.500000    0.500000    0.975000    2.000000 Uiso  0.3650
 Li2b_A_n98 Li+    0.500000    0.500000    0.975000    2.000000 Uiso  0.3650
 Li3_A_n98 Li+    0.500000    0.500000    0.975000    2.000000 Uiso  0.2700
 Sc1_A_n99_fault Sc3+    0.250000    0.250000    0.980000    2.000000 Uiso  1.0000
 Cl1_A_n99_fault Cl1-    0.481300    0.481300    0.982313    2.000000 Uiso  1.0000
 Cl2_A_n99_fault Cl1-    0.018700    0.018700    0.977687    2.000000 Uiso  1.0000
 Cl3_A_n99_fault Cl1-    0.012900    0.012900    0.977629    2.000000 Uiso  1.0000
 Cl4_A_n99_fault Cl1-    0.012900    0.012900    0.977629    2.000000 Uiso  1.0000
 Cl5_A_n99_fault Cl1-    0.487100    0.487100    0.982371    2.000000 Uiso  1.0000
 Cl6_A_n99_fault Cl1-    0.487100    0.487100    0.982371    2.000000 Uiso  1.0000
 Li1a_A_n99_fault Li+    0.250000    0.250000    0.980000    2.000000 Uiso  1.0000
 Li1b_A_n99_fault Li+    0.250000    0.250000    0.980000    2.000000 Uiso  1.0000
 Li2a_A_n99_fault Li+    0.750000    0.750000    0.985000    2.000000 Uiso  0.3650
 Li2b_A_n99_fault Li+    0.750000    0.750000    0.985000    2.000000 Uiso  0.3650
 Li3_A_n99_fault Li+    0.750000    0.750000    0.985000    2.000000 Uiso  0.2700
 Sc1_A_n100_fault Sc3+    0.250000    0.250000    0.990000    2.000000 Uiso  1.0000
 Cl1_A_n100_fault Cl1-    0.481300    0.481300    0.992313    2.000000 Uiso  1.0000
 Cl2_A_n100_fault Cl1-    0.018700    0.018700    0.987687    2.000000 Uiso  1.0000
 Cl3_A_n100_fault Cl1-    0.012900    0.012900    0.987629    2.000000 Uiso  1.0000
 Cl4_A_n100_fault Cl1-    0.012900    0.012900    0.987629    2.000000 Uiso  1.0000
 Cl5_A_n100_fault Cl1-    0.487100    0.487100    0.992371    2.000000 Uiso  1.0000
 Cl6_A_n100_fault Cl1-    0.487100    0.487100    0.992371    2.000000 Uiso  1.0000
 Li1a_A_n100_fault Li+    0.250000    0.250000    0.990000    2.000000 Uiso  1.0000
 Li1b_A_n100_fault Li+    0.250000    0.250000    0.990000    2.000000 Uiso  1.0000
 Li2a_A_n100_fault Li+    0.750000    0.750000    0.995000    2.000000 Uiso  0.3650
 Li2b_A_n100_fault Li+    0.750000    0.750000    0.995000    2.000000 Uiso  0.3650
 Li3_A_n100_fault Li+    0.750000    0.750000    0.995000    2.000000 Uiso  0.2700
 Sc1_B_n1 Sc3+    0.000000    0.000000    0.000000    2.000000 Uiso  1.0000
 Cl1_B_n1 Cl1-    0.231300    0.231300    0.002313    2.000000 Uiso  1.0000
 Cl2_B_n1 Cl1-   -0.231300   -0.231300   -0.002313    2.000000 Uiso  1.0000
 Cl3_B_n1 Cl1-   -0.237100   -0.237100   -0.002371    2.000000 Uiso  1.0000
 Cl4_B_n1 Cl1-   -0.237100   -0.237100   -0.002371    2.000000 Uiso  1.0000
 Cl5_B_n1 Cl1-    0.237100    0.237100    0.002371    2.000000 Uiso  1.0000
 Cl6_B_n1 Cl1-    0.237100    0.237100    0.002371    2.000000 Uiso  1.0000
 Li1a_B_n1 Li+    0.000000    0.000000    0.000000    2.000000 Uiso  1.0000
 Li1b_B_n1 Li+    0.000000    0.000000    0.000000    2.000000 Uiso  1.0000
 Li2a_B_n1 Li+    0.500000    0.500000    0.005000    2.000000 Uiso  0.3650
 Li2b_B_n1 Li+    0.500000    0.500000    0.005000    2.000000 Uiso  0.3650
 Li3_B_n1 Li+    0.500000    0.500000    0.005000    2.000000 Uiso  0.2700
 Sc1_B_n2 Sc3+    0.000000    0.000000    0.010000    2.000000 Uiso  1.0000
 Cl1_B_n2 Cl1-    0.231300    0.231300    0.012313    2.000000 Uiso  1.0000
 Cl2_B_n2 Cl1-   -0.231300   -0.231300    0.007687    2.000000 Uiso  1.0000
 Cl3_B_n2 Cl1-   -0.237100   -0.237100    0.007629    2.000000 Uiso  1.0000
 Cl4_B_n2 Cl1-   -0.237100   -0.237100    0.007629    2.000000 Uiso  1.0000
 Cl5_B_n2 Cl1-    0.237100    0.237100    0.012371    2.000000 Uiso  1.0000
 Cl6_B_n2 Cl1-    0.237100    0.237100    0.012371    2.000000 Uiso  1.0000
 Li1a_B_n2 Li+    0.000000    0.000000    0.010000    2.000000 Uiso  1.0000
 Li1b_B_n2 Li+    0.000000    0.000000    0.010000    2.000000 Uiso  1.0000
 Li2a_B_n2 Li+    0.500000    0.500000    0.015000    2.000000 Uiso  0.3650
 Li2b_B_n2 Li+    0.500000    0.500000    0.015000    2.000000 Uiso  0.3650
 Li3_B_n2 Li+    0.500000    0.500000    0.015000    2.000000 Uiso  0.2700
 Sc1_B_n3 Sc3+    0.000000    0.000000    0.020000    2.000000 Uiso  1.0000
 Cl1_B_n3 Cl1-    0.231300    0.231300    0.022313    2.000000 Uiso  1.0000
 Cl2_B_n3 Cl1-   -0.231300   -0.231300    0.017687    2.000000 Uiso  1.0000
 Cl3_B_n3 Cl1-   -0.237100   -0.237100    0.017629    2.000000 Uiso  1.0000
 Cl4_B_n3 Cl1-   -0.237100   -0.237100    0.017629    2.000000 Uiso  1.0000
 Cl5_B_n3 Cl1-    0.237100    0.237100    0.022371    2.000000 Uiso  1.0000
 Cl6_B_n3 Cl1-    0.237100    0.237100    0.022371    2.000000 Uiso  1.0000
 Li1a_B_n3 Li+    0.000000    0.000000    0.020000    2.000000 Uiso  1.0000
 Li1b_B_n3 Li+    0.000000    0.000000    0.020000    2.000000 Uiso  1.0000
 Li2a_B_n3 Li+    0.500000    0.500000    0.025000    2.000000 Uiso  0.3650
 Li2b_B_n3 Li+    0.500000    0.500000    0.025000    2.000000 Uiso  0.3650
 Li3_B_n3 Li+    0.500000    0.500000    0.025000    2.000000 Uiso  0.2700
 Sc1_B_n4 Sc3+    0.000000    0.000000    0.030000    2.000000 Uiso  1.0000
 Cl1_B_n4 Cl1-    0.231300    0.231300    0.032313    2.000000 Uiso  1.0000
 Cl2_B_n4 Cl1-   -0.231300   -0.231300    0.027687    2.000000 Uiso  1.0000
 Cl3_B_n4 Cl1-   -0.237100   -0.237100    0.027629    2.000000 Uiso  1.0000
 Cl4_B_n4 Cl1-   -0.237100   -0.237100    0.027629    2.000000 Uiso  1.0000
 Cl5_B_n4 Cl1-    0.237100    0.237100    0.032371    2.000000 Uiso  1.0000
 Cl6_B_n4 Cl1-    0.237100    0.237100    0.032371    2.000000 Uiso  1.0000
 Li1a_B_n4 Li+    0.000000    0.000000    0.030000    2.000000 Uiso  1.0000
 Li1b_B_n4 Li+    0.000000    0.000000    0.030000    2.000000 Uiso  1.0000
 Li2a_B_n4 Li+    0.500000    0.500000    0.035000    2.000000 Uiso  0.3650
 Li2b_B_n4 Li+    0.500000    0.500000    0.035000    2.000000 Uiso  0.3650
 Li3_B_n4 Li+    0.500000    0.500000    0.035000    2.000000 Uiso  0.2700
 Sc1_B_n5 Sc3+    0.000000    0.000000    0.040000    2.000000 Uiso  1.0000
 Cl1_B_n5 Cl1-    0.231300    0.231300    0.042313    2.000000 Uiso  1.0000
 Cl2_B_n5 Cl1-   -0.231300   -0.231300    0.037687    2.000000 Uiso  1.0000
 Cl3_B_n5 Cl1-   -0.237100   -0.237100    0.037629    2.000000 Uiso  1.0000
 Cl4_B_n5 Cl1-   -0.237100   -0.237100    0.037629    2.000000 Uiso  1.0000
 Cl5_B_n5 Cl1-    0.237100    0.237100    0.042371    2.000000 Uiso  1.0000
 Cl6_B_n5 Cl1-    0.237100    0.237100    0.042371    2.000000 Uiso  1.0000
 Li1a_B_n5 Li+    0.000000    0.000000    0.040000    2.000000 Uiso  1.0000
 Li1b_B_n5 Li+    0.000000    0.000000    0.040000    2.000000 Uiso  1.0000
 Li2a_B_n5 Li+    0.500000    0.500000    0.045000    2.000000 Uiso  0.3650
 Li2b_B_n5 Li+    0.500000    0.500000    0.045000    2.000000 Uiso  0.3650
 Li3_B_n5 Li+    0.500000    0.500000    0.045000    2.000000 Uiso  0.2700
 Sc1_B_n6 Sc3+    0.000000    0.000000    0.050000    2.000000 Uiso  1.0000
 Cl1_B_n6 Cl1-    0.231300    0.231300    0.052313    2.000000 Uiso  1.0000
 Cl2_B_n6 Cl1-   -0.231300   -0.231300    0.047687    2.000000 Uiso  1.0000
 Cl3_B_n6 Cl1-   -0.237100   -0.237100    0.047629    2.000000 Uiso  1.0000
 Cl4_B_n6 Cl1-   -0.237100   -0.237100    0.047629    2.000000 Uiso  1.0000
 Cl5_B_n6 Cl1-    0.237100    0.237100    0.052371    2.000000 Uiso  1.0000
 Cl6_B_n6 Cl1-    0.237100    0.237100    0.052371    2.000000 Uiso  1.0000
 Li1a_B_n6 Li+    0.000000    0.000000    0.050000    2.000000 Uiso  1.0000
 Li1b_B_n6 Li+    0.000000    0.000000    0.050000    2.000000 Uiso  1.0000
 Li2a_B_n6 Li+    0.500000    0.500000    0.055000    2.000000 Uiso  0.3650
 Li2b_B_n6 Li+    0.500000    0.500000    0.055000    2.000000 Uiso  0.3650
 Li3_B_n6 Li+    0.500000    0.500000    0.055000    2.000000 Uiso  0.2700
 Sc1_B_n7 Sc3+    0.000000    0.000000    0.060000    2.000000 Uiso  1.0000
 Cl1_B_n7 Cl1-    0.231300    0.231300    0.062313    2.000000 Uiso  1.0000
 Cl2_B_n7 Cl1-   -0.231300   -0.231300    0.057687    2.000000 Uiso  1.0000
 Cl3_B_n7 Cl1-   -0.237100   -0.237100    0.057629    2.000000 Uiso  1.0000
 Cl4_B_n7 Cl1-   -0.237100   -0.237100    0.057629    2.000000 Uiso  1.0000
 Cl5_B_n7 Cl1-    0.237100    0.237100    0.062371    2.000000 Uiso  1.0000
 Cl6_B_n7 Cl1-    0.237100    0.237100    0.062371    2.000000 Uiso  1.0000
 Li1a_B_n7 Li+    0.000000    0.000000    0.060000    2.000000 Uiso  1.0000
 Li1b_B_n7 Li+    0.000000    0.000000    0.060000    2.000000 Uiso  1.0000
 Li2a_B_n7 Li+    0.500000    0.500000    0.065000    2.000000 Uiso  0.3650
 Li2b_B_n7 Li+    0.500000    0.500000    0.065000    2.000000 Uiso  0.3650
 Li3_B_n7 Li+    0.500000    0.500000    0.065000    2.000000 Uiso  0.2700
 Sc1_B_n8 Sc3+    0.000000    0.000000    0.070000    2.000000 Uiso  1.0000
 Cl1_B_n8 Cl1-    0.231300    0.231300    0.072313    2.000000 Uiso  1.0000
 Cl2_B_n8 Cl1-   -0.231300   -0.231300    0.067687    2.000000 Uiso  1.0000
 Cl3_B_n8 Cl1-   -0.237100   -0.237100    0.067629    2.000000 Uiso  1.0000
 Cl4_B_n8 Cl1-   -0.237100   -0.237100    0.067629    2.000000 Uiso  1.0000
 Cl5_B_n8 Cl1-    0.237100    0.237100    0.072371    2.000000 Uiso  1.0000
 Cl6_B_n8 Cl1-    0.237100    0.237100    0.072371    2.000000 Uiso  1.0000
 Li1a_B_n8 Li+    0.000000    0.000000    0.070000    2.000000 Uiso  1.0000
 Li1b_B_n8 Li+    0.000000    0.000000    0.070000    2.000000 Uiso  1.0000
 Li2a_B_n8 Li+    0.500000    0.500000    0.075000    2.000000 Uiso  0.3650
 Li2b_B_n8 Li+    0.500000    0.500000    0.075000    2.000000 Uiso  0.3650
 Li3_B_n8 Li+    0.500000    0.500000    0.075000    2.000000 Uiso  0.2700
 Sc1_B_n9 Sc3+    0.000000    0.000000    0.080000    2.000000 Uiso  1.0000
 Cl1_B_n9 Cl1-    0.231300    0.231300    0.082313    2.000000 Uiso  1.0000
 Cl2_B_n9 Cl1-   -0.231300   -0.231300    0.077687    2.000000 Uiso  1.0000
 Cl3_B_n9 Cl1-   -0.237100   -0.237100    0.077629    2.000000 Uiso  1.0000
 Cl4_B_n9 Cl1-   -0.237100   -0.237100    0.077629    2.000000 Uiso  1.0000
 Cl5_B_n9 Cl1-    0.237100    0.237100    0.082371    2.000000 Uiso  1.0000
 Cl6_B_n9 Cl1-    0.237100    0.237100    0.082371    2.000000 Uiso  1.0000
 Li1a_B_n9 Li+    0.000000    0.000000    0.080000    2.000000 Uiso  1.0000
 Li1b_B_n9 Li+    0.000000    0.000000    0.080000    2.000000 Uiso  1.0000
 Li2a_B_n9 Li+    0.500000    0.500000    0.085000    2.000000 Uiso  0.3650
 Li2b_B_n9 Li+    0.500000    0.500000    0.085000    2.000000 Uiso  0.3650
 Li3_B_n9 Li+    0.500000    0.500000    0.085000    2.000000 Uiso  0.2700
 Sc1_B_n10 Sc3+    0.000000    0.000000    0.090000    2.000000 Uiso  1.0000
 Cl1_B_n10 Cl1-    0.231300    0.231300    0.092313    2.000000 Uiso  1.0000
 Cl2_B_n10 Cl1-   -0.231300   -0.231300    0.087687    2.000000 Uiso  1.0000
 Cl3_B_n10 Cl1-   -0.237100   -0.237100    0.087629    2.000000 Uiso  1.0000
 Cl4_B_n10 Cl1-   -0.237100   -0.237100    0.087629    2.000000 Uiso  1.0000
 Cl5_B_n10 Cl1-    0.237100    0.237100    0.092371    2.000000 Uiso  1.0000
 Cl6_B_n10 Cl1-    0.237100    0.237100    0.092371    2.000000 Uiso  1.0000
 Li1a_B_n10 Li+    0.000000    0.000000    0.090000    2.000000 Uiso  1.0000
 Li1b_B_n10 Li+    0.000000    0.000000    0.090000    2.000000 Uiso  1.0000
 Li2a_B_n10 Li+    0.500000    0.500000    0.095000    2.000000 Uiso  0.3650
 Li2b_B_n10 Li+    0.500000    0.500000    0.095000    2.000000 Uiso  0.3650
 Li3_B_n10 Li+    0.500000    0.500000    0.095000    2.000000 Uiso  0.2700
 Sc1_B_n11 Sc3+    0.000000    0.000000    0.100000    2.000000 Uiso  1.0000
 Cl1_B_n11 Cl1-    0.231300    0.231300    0.102313    2.000000 Uiso  1.0000
 Cl2_B_n11 Cl1-   -0.231300   -0.231300    0.097687    2.000000 Uiso  1.0000
 Cl3_B_n11 Cl1-   -0.237100   -0.237100    0.097629    2.000000 Uiso  1.0000
 Cl4_B_n11 Cl1-   -0.237100   -0.237100    0.097629    2.000000 Uiso  1.0000
 Cl5_B_n11 Cl1-    0.237100    0.237100    0.102371    2.000000 Uiso  1.0000
 Cl6_B_n11 Cl1-    0.237100    0.237100    0.102371    2.000000 Uiso  1.0000
 Li1a_B_n11 Li+    0.000000    0.000000    0.100000    2.000000 Uiso  1.0000
 Li1b_B_n11 Li+    0.000000    0.000000    0.100000    2.000000 Uiso  1.0000
 Li2a_B_n11 Li+    0.500000    0.500000    0.105000    2.000000 Uiso  0.3650
 Li2b_B_n11 Li+    0.500000    0.500000    0.105000    2.000000 Uiso  0.3650
 Li3_B_n11 Li+    0.500000    0.500000    0.105000    2.000000 Uiso  0.2700
 Sc1_B_n12 Sc3+    0.000000    0.000000    0.110000    2.000000 Uiso  1.0000
 Cl1_B_n12 Cl1-    0.231300    0.231300    0.112313    2.000000 Uiso  1.0000
 Cl2_B_n12 Cl1-   -0.231300   -0.231300    0.107687    2.000000 Uiso  1.0000
 Cl3_B_n12 Cl1-   -0.237100   -0.237100    0.107629    2.000000 Uiso  1.0000
 Cl4_B_n12 Cl1-   -0.237100   -0.237100    0.107629    2.000000 Uiso  1.0000
 Cl5_B_n12 Cl1-    0.237100    0.237100    0.112371    2.000000 Uiso  1.0000
 Cl6_B_n12 Cl1-    0.237100    0.237100    0.112371    2.000000 Uiso  1.0000
 Li1a_B_n12 Li+    0.000000    0.000000    0.110000    2.000000 Uiso  1.0000
 Li1b_B_n12 Li+    0.000000    0.000000    0.110000    2.000000 Uiso  1.0000
 Li2a_B_n12 Li+    0.500000    0.500000    0.115000    2.000000 Uiso  0.3650
 Li2b_B_n12 Li+    0.500000    0.500000    0.115000    2.000000 Uiso  0.3650
 Li3_B_n12 Li+    0.500000    0.500000    0.115000    2.000000 Uiso  0.2700
 Sc1_B_n13 Sc3+    0.000000    0.000000    0.120000    2.000000 Uiso  1.0000
 Cl1_B_n13 Cl1-    0.231300    0.231300    0.122313    2.000000 Uiso  1.0000
 Cl2_B_n13 Cl1-   -0.231300   -0.231300    0.117687    2.000000 Uiso  1.0000
 Cl3_B_n13 Cl1-   -0.237100   -0.237100    0.117629    2.000000 Uiso  1.0000
 Cl4_B_n13 Cl1-   -0.237100   -0.237100    0.117629    2.000000 Uiso  1.0000
 Cl5_B_n13 Cl1-    0.237100    0.237100    0.122371    2.000000 Uiso  1.0000
 Cl6_B_n13 Cl1-    0.237100    0.237100    0.122371    2.000000 Uiso  1.0000
 Li1a_B_n13 Li+    0.000000    0.000000    0.120000    2.000000 Uiso  1.0000
 Li1b_B_n13 Li+    0.000000    0.000000    0.120000    2.000000 Uiso  1.0000
 Li2a_B_n13 Li+    0.500000    0.500000    0.125000    2.000000 Uiso  0.3650
 Li2b_B_n13 Li+    0.500000    0.500000    0.125000    2.000000 Uiso  0.3650
 Li3_B_n13 Li+    0.500000    0.500000    0.125000    2.000000 Uiso  0.2700
 Sc1_B_n14 Sc3+    0.000000    0.000000    0.130000    2.000000 Uiso  1.0000
 Cl1_B_n14 Cl1-    0.231300    0.231300    0.132313    2.000000 Uiso  1.0000
 Cl2_B_n14 Cl1-   -0.231300   -0.231300    0.127687    2.000000 Uiso  1.0000
 Cl3_B_n14 Cl1-   -0.237100   -0.237100    0.127629    2.000000 Uiso  1.0000
 Cl4_B_n14 Cl1-   -0.237100   -0.237100    0.127629    2.000000 Uiso  1.0000
 Cl5_B_n14 Cl1-    0.237100    0.237100    0.132371    2.000000 Uiso  1.0000
 Cl6_B_n14 Cl1-    0.237100    0.237100    0.132371    2.000000 Uiso  1.0000
 Li1a_B_n14 Li+    0.000000    0.000000    0.130000    2.000000 Uiso  1.0000
 Li1b_B_n14 Li+    0.000000    0.000000    0.130000    2.000000 Uiso  1.0000
 Li2a_B_n14 Li+    0.500000    0.500000    0.135000    2.000000 Uiso  0.3650
 Li2b_B_n14 Li+    0.500000    0.500000    0.135000    2.000000 Uiso  0.3650
 Li3_B_n14 Li+    0.500000    0.500000    0.135000    2.000000 Uiso  0.2700
 Sc1_B_n15 Sc3+    0.000000    0.000000    0.140000    2.000000 Uiso  1.0000
 Cl1_B_n15 Cl1-    0.231300    0.231300    0.142313    2.000000 Uiso  1.0000
 Cl2_B_n15 Cl1-   -0.231300   -0.231300    0.137687    2.000000 Uiso  1.0000
 Cl3_B_n15 Cl1-   -0.237100   -0.237100    0.137629    2.000000 Uiso  1.0000
 Cl4_B_n15 Cl1-   -0.237100   -0.237100    0.137629    2.000000 Uiso  1.0000
 Cl5_B_n15 Cl1-    0.237100    0.237100    0.142371    2.000000 Uiso  1.0000
 Cl6_B_n15 Cl1-    0.237100    0.237100    0.142371    2.000000 Uiso  1.0000
 Li1a_B_n15 Li+    0.000000    0.000000    0.140000    2.000000 Uiso  1.0000
 Li1b_B_n15 Li+    0.000000    0.000000    0.140000    2.000000 Uiso  1.0000
 Li2a_B_n15 Li+    0.500000    0.500000    0.145000    2.000000 Uiso  0.3650
 Li2b_B_n15 Li+    0.500000    0.500000    0.145000    2.000000 Uiso  0.3650
 Li3_B_n15 Li+    0.500000    0.500000    0.145000    2.000000 Uiso  0.2700
 Sc1_B_n16 Sc3+    0.000000    0.000000    0.150000    2.000000 Uiso  1.0000
 Cl1_B_n16 Cl1-    0.231300    0.231300    0.152313    2.000000 Uiso  1.0000
 Cl2_B_n16 Cl1-   -0.231300   -0.231300    0.147687    2.000000 Uiso  1.0000
 Cl3_B_n16 Cl1-   -0.237100   -0.237100    0.147629    2.000000 Uiso  1.0000
 Cl4_B_n16 Cl1-   -0.237100   -0.237100    0.147629    2.000000 Uiso  1.0000
 Cl5_B_n16 Cl1-    0.237100    0.237100    0.152371    2.000000 Uiso  1.0000
 Cl6_B_n16 Cl1-    0.237100    0.237100    0.152371    2.000000 Uiso  1.0000
 Li1a_B_n16 Li+    0.000000    0.000000    0.150000    2.000000 Uiso  1.0000
 Li1b_B_n16 Li+    0.000000    0.000000    0.150000    2.000000 Uiso  1.0000
 Li2a_B_n16 Li+    0.500000    0.500000    0.155000    2.000000 Uiso  0.3650
 Li2b_B_n16 Li+    0.500000    0.500000    0.155000    2.000000 Uiso  0.3650
 Li3_B_n16 Li+    0.500000    0.500000    0.155000    2.000000 Uiso  0.2700
 Sc1_B_n17 Sc3+    0.000000    0.000000    0.160000    2.000000 Uiso  1.0000
 Cl1_B_n17 Cl1-    0.231300    0.231300    0.162313    2.000000 Uiso  1.0000
 Cl2_B_n17 Cl1-   -0.231300   -0.231300    0.157687    2.000000 Uiso  1.0000
 Cl3_B_n17 Cl1-   -0.237100   -0.237100    0.157629    2.000000 Uiso  1.0000
 Cl4_B_n17 Cl1-   -0.237100   -0.237100    0.157629    2.000000 Uiso  1.0000
 Cl5_B_n17 Cl1-    0.237100    0.237100    0.162371    2.000000 Uiso  1.0000
 Cl6_B_n17 Cl1-    0.237100    0.237100    0.162371    2.000000 Uiso  1.0000
 Li1a_B_n17 Li+    0.000000    0.000000    0.160000    2.000000 Uiso  1.0000
 Li1b_B_n17 Li+    0.000000    0.000000    0.160000    2.000000 Uiso  1.0000
 Li2a_B_n17 Li+    0.500000    0.500000    0.165000    2.000000 Uiso  0.3650
 Li2b_B_n17 Li+    0.500000    0.500000    0.165000    2.000000 Uiso  0.3650
 Li3_B_n17 Li+    0.500000    0.500000    0.165000    2.000000 Uiso  0.2700
 Sc1_B_n18 Sc3+    0.000000    0.000000    0.170000    2.000000 Uiso  1.0000
 Cl1_B_n18 Cl1-    0.231300    0.231300    0.172313    2.000000 Uiso  1.0000
 Cl2_B_n18 Cl1-   -0.231300   -0.231300    0.167687    2.000000 Uiso  1.0000
 Cl3_B_n18 Cl1-   -0.237100   -0.237100    0.167629    2.000000 Uiso  1.0000
 Cl4_B_n18 Cl1-   -0.237100   -0.237100    0.167629    2.000000 Uiso  1.0000
 Cl5_B_n18 Cl1-    0.237100    0.237100    0.172371    2.000000 Uiso  1.0000
 Cl6_B_n18 Cl1-    0.237100    0.237100    0.172371    2.000000 Uiso  1.0000
 Li1a_B_n18 Li+    0.000000    0.000000    0.170000    2.000000 Uiso  1.0000
 Li1b_B_n18 Li+    0.000000    0.000000    0.170000    2.000000 Uiso  1.0000
 Li2a_B_n18 Li+    0.500000    0.500000    0.175000    2.000000 Uiso  0.3650
 Li2b_B_n18 Li+    0.500000    0.500000    0.175000    2.000000 Uiso  0.3650
 Li3_B_n18 Li+    0.500000    0.500000    0.175000    2.000000 Uiso  0.2700
 Sc1_B_n19 Sc3+    0.000000    0.000000    0.180000    2.000000 Uiso  1.0000
 Cl1_B_n19 Cl1-    0.231300    0.231300    0.182313    2.000000 Uiso  1.0000
 Cl2_B_n19 Cl1-   -0.231300   -0.231300    0.177687    2.000000 Uiso  1.0000
 Cl3_B_n19 Cl1-   -0.237100   -0.237100    0.177629    2.000000 Uiso  1.0000
 Cl4_B_n19 Cl1-   -0.237100   -0.237100    0.177629    2.000000 Uiso  1.0000
 Cl5_B_n19 Cl1-    0.237100    0.237100    0.182371    2.000000 Uiso  1.0000
 Cl6_B_n19 Cl1-    0.237100    0.237100    0.182371    2.000000 Uiso  1.0000
 Li1a_B_n19 Li+    0.000000    0.000000    0.180000    2.000000 Uiso  1.0000
 Li1b_B_n19 Li+    0.000000    0.000000    0.180000    2.000000 Uiso  1.0000
 Li2a_B_n19 Li+    0.500000    0.500000    0.185000    2.000000 Uiso  0.3650
 Li2b_B_n19 Li+    0.500000    0.500000    0.185000    2.000000 Uiso  0.3650
 Li3_B_n19 Li+    0.500000    0.500000    0.185000    2.000000 Uiso  0.2700
 Sc1_B_n20 Sc3+    0.000000    0.000000    0.190000    2.000000 Uiso  1.0000
 Cl1_B_n20 Cl1-    0.231300    0.231300    0.192313    2.000000 Uiso  1.0000
 Cl2_B_n20 Cl1-   -0.231300   -0.231300    0.187687    2.000000 Uiso  1.0000
 Cl3_B_n20 Cl1-   -0.237100   -0.237100    0.187629    2.000000 Uiso  1.0000
 Cl4_B_n20 Cl1-   -0.237100   -0.237100    0.187629    2.000000 Uiso  1.0000
 Cl5_B_n20 Cl1-    0.237100    0.237100    0.192371    2.000000 Uiso  1.0000
 Cl6_B_n20 Cl1-    0.237100    0.237100    0.192371    2.000000 Uiso  1.0000
 Li1a_B_n20 Li+    0.000000    0.000000    0.190000    2.000000 Uiso  1.0000
 Li1b_B_n20 Li+    0.000000    0.000000    0.190000    2.000000 Uiso  1.0000
 Li2a_B_n20 Li+    0.500000    0.500000    0.195000    2.000000 Uiso  0.3650
 Li2b_B_n20 Li+    0.500000    0.500000    0.195000    2.000000 Uiso  0.3650
 Li3_B_n20 Li+    0.500000    0.500000    0.195000    2.000000 Uiso  0.2700
 Sc1_B_n21 Sc3+    0.000000    0.000000    0.200000    2.000000 Uiso  1.0000
 Cl1_B_n21 Cl1-    0.231300    0.231300    0.202313    2.000000 Uiso  1.0000
 Cl2_B_n21 Cl1-   -0.231300   -0.231300    0.197687    2.000000 Uiso  1.0000
 Cl3_B_n21 Cl1-   -0.237100   -0.237100    0.197629    2.000000 Uiso  1.0000
 Cl4_B_n21 Cl1-   -0.237100   -0.237100    0.197629    2.000000 Uiso  1.0000
 Cl5_B_n21 Cl1-    0.237100    0.237100    0.202371    2.000000 Uiso  1.0000
 Cl6_B_n21 Cl1-    0.237100    0.237100    0.202371    2.000000 Uiso  1.0000
 Li1a_B_n21 Li+    0.000000    0.000000    0.200000    2.000000 Uiso  1.0000
 Li1b_B_n21 Li+    0.000000    0.000000    0.200000    2.000000 Uiso  1.0000
 Li2a_B_n21 Li+    0.500000    0.500000    0.205000    2.000000 Uiso  0.3650
 Li2b_B_n21 Li+    0.500000    0.500000    0.205000    2.000000 Uiso  0.3650
 Li3_B_n21 Li+    0.500000    0.500000    0.205000    2.000000 Uiso  0.2700
 Sc1_B_n22 Sc3+    0.000000    0.000000    0.210000    2.000000 Uiso  1.0000
 Cl1_B_n22 Cl1-    0.231300    0.231300    0.212313    2.000000 Uiso  1.0000
 Cl2_B_n22 Cl1-   -0.231300   -0.231300    0.207687    2.000000 Uiso  1.0000
 Cl3_B_n22 Cl1-   -0.237100   -0.237100    0.207629    2.000000 Uiso  1.0000
 Cl4_B_n22 Cl1-   -0.237100   -0.237100    0.207629    2.000000 Uiso  1.0000
 Cl5_B_n22 Cl1-    0.237100    0.237100    0.212371    2.000000 Uiso  1.0000
 Cl6_B_n22 Cl1-    0.237100    0.237100    0.212371    2.000000 Uiso  1.0000
 Li1a_B_n22 Li+    0.000000    0.000000    0.210000    2.000000 Uiso  1.0000
 Li1b_B_n22 Li+    0.000000    0.000000    0.210000    2.000000 Uiso  1.0000
 Li2a_B_n22 Li+    0.500000    0.500000    0.215000    2.000000 Uiso  0.3650
 Li2b_B_n22 Li+    0.500000    0.500000    0.215000    2.000000 Uiso  0.3650
 Li3_B_n22 Li+    0.500000    0.500000    0.215000    2.000000 Uiso  0.2700
 Sc1_B_n23 Sc3+    0.000000    0.000000    0.220000    2.000000 Uiso  1.0000
 Cl1_B_n23 Cl1-    0.231300    0.231300    0.222313    2.000000 Uiso  1.0000
 Cl2_B_n23 Cl1-   -0.231300   -0.231300    0.217687    2.000000 Uiso  1.0000
 Cl3_B_n23 Cl1-   -0.237100   -0.237100    0.217629    2.000000 Uiso  1.0000
 Cl4_B_n23 Cl1-   -0.237100   -0.237100    0.217629    2.000000 Uiso  1.0000
 Cl5_B_n23 Cl1-    0.237100    0.237100    0.222371    2.000000 Uiso  1.0000
 Cl6_B_n23 Cl1-    0.237100    0.237100    0.222371    2.000000 Uiso  1.0000
 Li1a_B_n23 Li+    0.000000    0.000000    0.220000    2.000000 Uiso  1.0000
 Li1b_B_n23 Li+    0.000000    0.000000    0.220000    2.000000 Uiso  1.0000
 Li2a_B_n23 Li+    0.500000    0.500000    0.225000    2.000000 Uiso  0.3650
 Li2b_B_n23 Li+    0.500000    0.500000    0.225000    2.000000 Uiso  0.3650
 Li3_B_n23 Li+    0.500000    0.500000    0.225000    2.000000 Uiso  0.2700
 Sc1_B_n24 Sc3+    0.000000    0.000000    0.230000    2.000000 Uiso  1.0000
 Cl1_B_n24 Cl1-    0.231300    0.231300    0.232313    2.000000 Uiso  1.0000
 Cl2_B_n24 Cl1-   -0.231300   -0.231300    0.227687    2.000000 Uiso  1.0000
 Cl3_B_n24 Cl1-   -0.237100   -0.237100    0.227629    2.000000 Uiso  1.0000
 Cl4_B_n24 Cl1-   -0.237100   -0.237100    0.227629    2.000000 Uiso  1.0000
 Cl5_B_n24 Cl1-    0.237100    0.237100    0.232371    2.000000 Uiso  1.0000
 Cl6_B_n24 Cl1-    0.237100    0.237100    0.232371    2.000000 Uiso  1.0000
 Li1a_B_n24 Li+    0.000000    0.000000    0.230000    2.000000 Uiso  1.0000
 Li1b_B_n24 Li+    0.000000    0.000000    0.230000    2.000000 Uiso  1.0000
 Li2a_B_n24 Li+    0.500000    0.500000    0.235000    2.000000 Uiso  0.3650
 Li2b_B_n24 Li+    0.500000    0.500000    0.235000    2.000000 Uiso  0.3650
 Li3_B_n24 Li+    0.500000    0.500000    0.235000    2.000000 Uiso  0.2700
 Sc1_B_n25 Sc3+    0.000000    0.000000    0.240000    2.000000 Uiso  1.0000
 Cl1_B_n25 Cl1-    0.231300    0.231300    0.242313    2.000000 Uiso  1.0000
 Cl2_B_n25 Cl1-   -0.231300   -0.231300    0.237687    2.000000 Uiso  1.0000
 Cl3_B_n25 Cl1-   -0.237100   -0.237100    0.237629    2.000000 Uiso  1.0000
 Cl4_B_n25 Cl1-   -0.237100   -0.237100    0.237629    2.000000 Uiso  1.0000
 Cl5_B_n25 Cl1-    0.237100    0.237100    0.242371    2.000000 Uiso  1.0000
 Cl6_B_n25 Cl1-    0.237100    0.237100    0.242371    2.000000 Uiso  1.0000
 Li1a_B_n25 Li+    0.000000    0.000000    0.240000    2.000000 Uiso  1.0000
 Li1b_B_n25 Li+    0.000000    0.000000    0.240000    2.000000 Uiso  1.0000
 Li2a_B_n25 Li+    0.500000    0.500000    0.245000    2.000000 Uiso  0.3650
 Li2b_B_n25 Li+    0.500000    0.500000    0.245000    2.000000 Uiso  0.3650
 Li3_B_n25 Li+    0.500000    0.500000    0.245000    2.000000 Uiso  0.2700
 Sc1_B_n26 Sc3+    0.000000    0.000000    0.250000    2.000000 Uiso  1.0000
 Cl1_B_n26 Cl1-    0.231300    0.231300    0.252313    2.000000 Uiso  1.0000
 Cl2_B_n26 Cl1-   -0.231300   -0.231300    0.247687    2.000000 Uiso  1.0000
 Cl3_B_n26 Cl1-   -0.237100   -0.237100    0.247629    2.000000 Uiso  1.0000
 Cl4_B_n26 Cl1-   -0.237100   -0.237100    0.247629    2.000000 Uiso  1.0000
 Cl5_B_n26 Cl1-    0.237100    0.237100    0.252371    2.000000 Uiso  1.0000
 Cl6_B_n26 Cl1-    0.237100    0.237100    0.252371    2.000000 Uiso  1.0000
 Li1a_B_n26 Li+    0.000000    0.000000    0.250000    2.000000 Uiso  1.0000
 Li1b_B_n26 Li+    0.000000    0.000000    0.250000    2.000000 Uiso  1.0000
 Li2a_B_n26 Li+    0.500000    0.500000    0.255000    2.000000 Uiso  0.3650
 Li2b_B_n26 Li+    0.500000    0.500000    0.255000    2.000000 Uiso  0.3650
 Li3_B_n26 Li+    0.500000    0.500000    0.255000    2.000000 Uiso  0.2700
 Sc1_B_n27 Sc3+    0.000000    0.000000    0.260000    2.000000 Uiso  1.0000
 Cl1_B_n27 Cl1-    0.231300    0.231300    0.262313    2.000000 Uiso  1.0000
 Cl2_B_n27 Cl1-   -0.231300   -0.231300    0.257687    2.000000 Uiso  1.0000
 Cl3_B_n27 Cl1-   -0.237100   -0.237100    0.257629    2.000000 Uiso  1.0000
 Cl4_B_n27 Cl1-   -0.237100   -0.237100    0.257629    2.000000 Uiso  1.0000
 Cl5_B_n27 Cl1-    0.237100    0.237100    0.262371    2.000000 Uiso  1.0000
 Cl6_B_n27 Cl1-    0.237100    0.237100    0.262371    2.000000 Uiso  1.0000
 Li1a_B_n27 Li+    0.000000    0.000000    0.260000    2.000000 Uiso  1.0000
 Li1b_B_n27 Li+    0.000000    0.000000    0.260000    2.000000 Uiso  1.0000
 Li2a_B_n27 Li+    0.500000    0.500000    0.265000    2.000000 Uiso  0.3650
 Li2b_B_n27 Li+    0.500000    0.500000    0.265000    2.000000 Uiso  0.3650
 Li3_B_n27 Li+    0.500000    0.500000    0.265000    2.000000 Uiso  0.2700
 Sc1_B_n28 Sc3+    0.000000    0.000000    0.270000    2.000000 Uiso  1.0000
 Cl1_B_n28 Cl1-    0.231300    0.231300    0.272313    2.000000 Uiso  1.0000
 Cl2_B_n28 Cl1-   -0.231300   -0.231300    0.267687    2.000000 Uiso  1.0000
 Cl3_B_n28 Cl1-   -0.237100   -0.237100    0.267629    2.000000 Uiso  1.0000
 Cl4_B_n28 Cl1-   -0.237100   -0.237100    0.267629    2.000000 Uiso  1.0000
 Cl5_B_n28 Cl1-    0.237100    0.237100    0.272371    2.000000 Uiso  1.0000
 Cl6_B_n28 Cl1-    0.237100    0.237100    0.272371    2.000000 Uiso  1.0000
 Li1a_B_n28 Li+    0.000000    0.000000    0.270000    2.000000 Uiso  1.0000
 Li1b_B_n28 Li+    0.000000    0.000000    0.270000    2.000000 Uiso  1.0000
 Li2a_B_n28 Li+    0.500000    0.500000    0.275000    2.000000 Uiso  0.3650
 Li2b_B_n28 Li+    0.500000    0.500000    0.275000    2.000000 Uiso  0.3650
 Li3_B_n28 Li+    0.500000    0.500000    0.275000    2.000000 Uiso  0.2700
 Sc1_B_n29 Sc3+    0.000000    0.000000    0.280000    2.000000 Uiso  1.0000
 Cl1_B_n29 Cl1-    0.231300    0.231300    0.282313    2.000000 Uiso  1.0000
 Cl2_B_n29 Cl1-   -0.231300   -0.231300    0.277687    2.000000 Uiso  1.0000
 Cl3_B_n29 Cl1-   -0.237100   -0.237100    0.277629    2.000000 Uiso  1.0000
 Cl4_B_n29 Cl1-   -0.237100   -0.237100    0.277629    2.000000 Uiso  1.0000
 Cl5_B_n29 Cl1-    0.237100    0.237100    0.282371    2.000000 Uiso  1.0000
 Cl6_B_n29 Cl1-    0.237100    0.237100    0.282371    2.000000 Uiso  1.0000
 Li1a_B_n29 Li+    0.000000    0.000000    0.280000    2.000000 Uiso  1.0000
 Li1b_B_n29 Li+    0.000000    0.000000    0.280000    2.000000 Uiso  1.0000
 Li2a_B_n29 Li+    0.500000    0.500000    0.285000    2.000000 Uiso  0.3650
 Li2b_B_n29 Li+    0.500000    0.500000    0.285000    2.000000 Uiso  0.3650
 Li3_B_n29 Li+    0.500000    0.500000    0.285000    2.000000 Uiso  0.2700
 Sc1_B_n30 Sc3+    0.000000    0.000000    0.290000    2.000000 Uiso  1.0000
 Cl1_B_n30 Cl1-    0.231300    0.231300    0.292313    2.000000 Uiso  1.0000
 Cl2_B_n30 Cl1-   -0.231300   -0.231300    0.287687    2.000000 Uiso  1.0000
 Cl3_B_n30 Cl1-   -0.237100   -0.237100    0.287629    2.000000 Uiso  1.0000
 Cl4_B_n30 Cl1-   -0.237100   -0.237100    0.287629    2.000000 Uiso  1.0000
 Cl5_B_n30 Cl1-    0.237100    0.237100    0.292371    2.000000 Uiso  1.0000
 Cl6_B_n30 Cl1-    0.237100    0.237100    0.292371    2.000000 Uiso  1.0000
 Li1a_B_n30 Li+    0.000000    0.000000    0.290000    2.000000 Uiso  1.0000
 Li1b_B_n30 Li+    0.000000    0.000000    0.290000    2.000000 Uiso  1.0000
 Li2a_B_n30 Li+    0.500000    0.500000    0.295000    2.000000 Uiso  0.3650
 Li2b_B_n30 Li+    0.500000    0.500000    0.295000    2.000000 Uiso  0.3650
 Li3_B_n30 Li+    0.500000    0.500000    0.295000    2.000000 Uiso  0.2700
 Sc1_B_n31 Sc3+    0.000000    0.000000    0.300000    2.000000 Uiso  1.0000
 Cl1_B_n31 Cl1-    0.231300    0.231300    0.302313    2.000000 Uiso  1.0000
 Cl2_B_n31 Cl1-   -0.231300   -0.231300    0.297687    2.000000 Uiso  1.0000
 Cl3_B_n31 Cl1-   -0.237100   -0.237100    0.297629    2.000000 Uiso  1.0000
 Cl4_B_n31 Cl1-   -0.237100   -0.237100    0.297629    2.000000 Uiso  1.0000
 Cl5_B_n31 Cl1-    0.237100    0.237100    0.302371    2.000000 Uiso  1.0000
 Cl6_B_n31 Cl1-    0.237100    0.237100    0.302371    2.000000 Uiso  1.0000
 Li1a_B_n31 Li+    0.000000    0.000000    0.300000    2.000000 Uiso  1.0000
 Li1b_B_n31 Li+    0.000000    0.000000    0.300000    2.000000 Uiso  1.0000
 Li2a_B_n31 Li+    0.500000    0.500000    0.305000    2.000000 Uiso  0.3650
 Li2b_B_n31 Li+    0.500000    0.500000    0.305000    2.000000 Uiso  0.3650
 Li3_B_n31 Li+    0.500000    0.500000    0.305000    2.000000 Uiso  0.2700
 Sc1_B_n32 Sc3+    0.000000    0.000000    0.310000    2.000000 Uiso  1.0000
 Cl1_B_n32 Cl1-    0.231300    0.231300    0.312313    2.000000 Uiso  1.0000
 Cl2_B_n32 Cl1-   -0.231300   -0.231300    0.307687    2.000000 Uiso  1.0000
 Cl3_B_n32 Cl1-   -0.237100   -0.237100    0.307629    2.000000 Uiso  1.0000
 Cl4_B_n32 Cl1-   -0.237100   -0.237100    0.307629    2.000000 Uiso  1.0000
 Cl5_B_n32 Cl1-    0.237100    0.237100    0.312371    2.000000 Uiso  1.0000
 Cl6_B_n32 Cl1-    0.237100    0.237100    0.312371    2.000000 Uiso  1.0000
 Li1a_B_n32 Li+    0.000000    0.000000    0.310000    2.000000 Uiso  1.0000
 Li1b_B_n32 Li+    0.000000    0.000000    0.310000    2.000000 Uiso  1.0000
 Li2a_B_n32 Li+    0.500000    0.500000    0.315000    2.000000 Uiso  0.3650
 Li2b_B_n32 Li+    0.500000    0.500000    0.315000    2.000000 Uiso  0.3650
 Li3_B_n32 Li+    0.500000    0.500000    0.315000    2.000000 Uiso  0.2700
 Sc1_B_n33 Sc3+    0.000000    0.000000    0.320000    2.000000 Uiso  1.0000
 Cl1_B_n33 Cl1-    0.231300    0.231300    0.322313    2.000000 Uiso  1.0000
 Cl2_B_n33 Cl1-   -0.231300   -0.231300    0.317687    2.000000 Uiso  1.0000
 Cl3_B_n33 Cl1-   -0.237100   -0.237100    0.317629    2.000000 Uiso  1.0000
 Cl4_B_n33 Cl1-   -0.237100   -0.237100    0.317629    2.000000 Uiso  1.0000
 Cl5_B_n33 Cl1-    0.237100    0.237100    0.322371    2.000000 Uiso  1.0000
 Cl6_B_n33 Cl1-    0.237100    0.237100    0.322371    2.000000 Uiso  1.0000
 Li1a_B_n33 Li+    0.000000    0.000000    0.320000    2.000000 Uiso  1.0000
 Li1b_B_n33 Li+    0.000000    0.000000    0.320000    2.000000 Uiso  1.0000
 Li2a_B_n33 Li+    0.500000    0.500000    0.325000    2.000000 Uiso  0.3650
 Li2b_B_n33 Li+    0.500000    0.500000    0.325000    2.000000 Uiso  0.3650
 Li3_B_n33 Li+    0.500000    0.500000    0.325000    2.000000 Uiso  0.2700
 Sc1_B_n34 Sc3+    0.000000    0.000000    0.330000    2.000000 Uiso  1.0000
 Cl1_B_n34 Cl1-    0.231300    0.231300    0.332313    2.000000 Uiso  1.0000
 Cl2_B_n34 Cl1-   -0.231300   -0.231300    0.327687    2.000000 Uiso  1.0000
 Cl3_B_n34 Cl1-   -0.237100   -0.237100    0.327629    2.000000 Uiso  1.0000
 Cl4_B_n34 Cl1-   -0.237100   -0.237100    0.327629    2.000000 Uiso  1.0000
 Cl5_B_n34 Cl1-    0.237100    0.237100    0.332371    2.000000 Uiso  1.0000
 Cl6_B_n34 Cl1-    0.237100    0.237100    0.332371    2.000000 Uiso  1.0000
 Li1a_B_n34 Li+    0.000000    0.000000    0.330000    2.000000 Uiso  1.0000
 Li1b_B_n34 Li+    0.000000    0.000000    0.330000    2.000000 Uiso  1.0000
 Li2a_B_n34 Li+    0.500000    0.500000    0.335000    2.000000 Uiso  0.3650
 Li2b_B_n34 Li+    0.500000    0.500000    0.335000    2.000000 Uiso  0.3650
 Li3_B_n34 Li+    0.500000    0.500000    0.335000    2.000000 Uiso  0.2700
 Sc1_B_n35 Sc3+    0.000000    0.000000    0.340000    2.000000 Uiso  1.0000
 Cl1_B_n35 Cl1-    0.231300    0.231300    0.342313    2.000000 Uiso  1.0000
 Cl2_B_n35 Cl1-   -0.231300   -0.231300    0.337687    2.000000 Uiso  1.0000
 Cl3_B_n35 Cl1-   -0.237100   -0.237100    0.337629    2.000000 Uiso  1.0000
 Cl4_B_n35 Cl1-   -0.237100   -0.237100    0.337629    2.000000 Uiso  1.0000
 Cl5_B_n35 Cl1-    0.237100    0.237100    0.342371    2.000000 Uiso  1.0000
 Cl6_B_n35 Cl1-    0.237100    0.237100    0.342371    2.000000 Uiso  1.0000
 Li1a_B_n35 Li+    0.000000    0.000000    0.340000    2.000000 Uiso  1.0000
 Li1b_B_n35 Li+    0.000000    0.000000    0.340000    2.000000 Uiso  1.0000
 Li2a_B_n35 Li+    0.500000    0.500000    0.345000    2.000000 Uiso  0.3650
 Li2b_B_n35 Li+    0.500000    0.500000    0.345000    2.000000 Uiso  0.3650
 Li3_B_n35 Li+    0.500000    0.500000    0.345000    2.000000 Uiso  0.2700
 Sc1_B_n36 Sc3+    0.000000    0.000000    0.350000    2.000000 Uiso  1.0000
 Cl1_B_n36 Cl1-    0.231300    0.231300    0.352313    2.000000 Uiso  1.0000
 Cl2_B_n36 Cl1-   -0.231300   -0.231300    0.347687    2.000000 Uiso  1.0000
 Cl3_B_n36 Cl1-   -0.237100   -0.237100    0.347629    2.000000 Uiso  1.0000
 Cl4_B_n36 Cl1-   -0.237100   -0.237100    0.347629    2.000000 Uiso  1.0000
 Cl5_B_n36 Cl1-    0.237100    0.237100    0.352371    2.000000 Uiso  1.0000
 Cl6_B_n36 Cl1-    0.237100    0.237100    0.352371    2.000000 Uiso  1.0000
 Li1a_B_n36 Li+    0.000000    0.000000    0.350000    2.000000 Uiso  1.0000
 Li1b_B_n36 Li+    0.000000    0.000000    0.350000    2.000000 Uiso  1.0000
 Li2a_B_n36 Li+    0.500000    0.500000    0.355000    2.000000 Uiso  0.3650
 Li2b_B_n36 Li+    0.500000    0.500000    0.355000    2.000000 Uiso  0.3650
 Li3_B_n36 Li+    0.500000    0.500000    0.355000    2.000000 Uiso  0.2700
 Sc1_B_n37 Sc3+    0.000000    0.000000    0.360000    2.000000 Uiso  1.0000
 Cl1_B_n37 Cl1-    0.231300    0.231300    0.362313    2.000000 Uiso  1.0000
 Cl2_B_n37 Cl1-   -0.231300   -0.231300    0.357687    2.000000 Uiso  1.0000
 Cl3_B_n37 Cl1-   -0.237100   -0.237100    0.357629    2.000000 Uiso  1.0000
 Cl4_B_n37 Cl1-   -0.237100   -0.237100    0.357629    2.000000 Uiso  1.0000
 Cl5_B_n37 Cl1-    0.237100    0.237100    0.362371    2.000000 Uiso  1.0000
 Cl6_B_n37 Cl1-    0.237100    0.237100    0.362371    2.000000 Uiso  1.0000
 Li1a_B_n37 Li+    0.000000    0.000000    0.360000    2.000000 Uiso  1.0000
 Li1b_B_n37 Li+    0.000000    0.000000    0.360000    2.000000 Uiso  1.0000
 Li2a_B_n37 Li+    0.500000    0.500000    0.365000    2.000000 Uiso  0.3650
 Li2b_B_n37 Li+    0.500000    0.500000    0.365000    2.000000 Uiso  0.3650
 Li3_B_n37 Li+    0.500000    0.500000    0.365000    2.000000 Uiso  0.2700
 Sc1_B_n38 Sc3+    0.000000    0.000000    0.370000    2.000000 Uiso  1.0000
 Cl1_B_n38 Cl1-    0.231300    0.231300    0.372313    2.000000 Uiso  1.0000
 Cl2_B_n38 Cl1-   -0.231300   -0.231300    0.367687    2.000000 Uiso  1.0000
 Cl3_B_n38 Cl1-   -0.237100   -0.237100    0.367629    2.000000 Uiso  1.0000
 Cl4_B_n38 Cl1-   -0.237100   -0.237100    0.367629    2.000000 Uiso  1.0000
 Cl5_B_n38 Cl1-    0.237100    0.237100    0.372371    2.000000 Uiso  1.0000
 Cl6_B_n38 Cl1-    0.237100    0.237100    0.372371    2.000000 Uiso  1.0000
 Li1a_B_n38 Li+    0.000000    0.000000    0.370000    2.000000 Uiso  1.0000
 Li1b_B_n38 Li+    0.000000    0.000000    0.370000    2.000000 Uiso  1.0000
 Li2a_B_n38 Li+    0.500000    0.500000    0.375000    2.000000 Uiso  0.3650
 Li2b_B_n38 Li+    0.500000    0.500000    0.375000    2.000000 Uiso  0.3650
 Li3_B_n38 Li+    0.500000    0.500000    0.375000    2.000000 Uiso  0.2700
 Sc1_B_n39 Sc3+    0.000000    0.000000    0.380000    2.000000 Uiso  1.0000
 Cl1_B_n39 Cl1-    0.231300    0.231300    0.382313    2.000000 Uiso  1.0000
 Cl2_B_n39 Cl1-   -0.231300   -0.231300    0.377687    2.000000 Uiso  1.0000
 Cl3_B_n39 Cl1-   -0.237100   -0.237100    0.377629    2.000000 Uiso  1.0000
 Cl4_B_n39 Cl1-   -0.237100   -0.237100    0.377629    2.000000 Uiso  1.0000
 Cl5_B_n39 Cl1-    0.237100    0.237100    0.382371    2.000000 Uiso  1.0000
 Cl6_B_n39 Cl1-    0.237100    0.237100    0.382371    2.000000 Uiso  1.0000
 Li1a_B_n39 Li+    0.000000    0.000000    0.380000    2.000000 Uiso  1.0000
 Li1b_B_n39 Li+    0.000000    0.000000    0.380000    2.000000 Uiso  1.0000
 Li2a_B_n39 Li+    0.500000    0.500000    0.385000    2.000000 Uiso  0.3650
 Li2b_B_n39 Li+    0.500000    0.500000    0.385000    2.000000 Uiso  0.3650
 Li3_B_n39 Li+    0.500000    0.500000    0.385000    2.000000 Uiso  0.2700
 Sc1_B_n40 Sc3+    0.000000    0.000000    0.390000    2.000000 Uiso  1.0000
 Cl1_B_n40 Cl1-    0.231300    0.231300    0.392313    2.000000 Uiso  1.0000
 Cl2_B_n40 Cl1-   -0.231300   -0.231300    0.387687    2.000000 Uiso  1.0000
 Cl3_B_n40 Cl1-   -0.237100   -0.237100    0.387629    2.000000 Uiso  1.0000
 Cl4_B_n40 Cl1-   -0.237100   -0.237100    0.387629    2.000000 Uiso  1.0000
 Cl5_B_n40 Cl1-    0.237100    0.237100    0.392371    2.000000 Uiso  1.0000
 Cl6_B_n40 Cl1-    0.237100    0.237100    0.392371    2.000000 Uiso  1.0000
 Li1a_B_n40 Li+    0.000000    0.000000    0.390000    2.000000 Uiso  1.0000
 Li1b_B_n40 Li+    0.000000    0.000000    0.390000    2.000000 Uiso  1.0000
 Li2a_B_n40 Li+    0.500000    0.500000    0.395000    2.000000 Uiso  0.3650
 Li2b_B_n40 Li+    0.500000    0.500000    0.395000    2.000000 Uiso  0.3650
 Li3_B_n40 Li+    0.500000    0.500000    0.395000    2.000000 Uiso  0.2700
 Sc1_B_n41 Sc3+    0.000000    0.000000    0.400000    2.000000 Uiso  1.0000
 Cl1_B_n41 Cl1-    0.231300    0.231300    0.402313    2.000000 Uiso  1.0000
 Cl2_B_n41 Cl1-   -0.231300   -0.231300    0.397687    2.000000 Uiso  1.0000
 Cl3_B_n41 Cl1-   -0.237100   -0.237100    0.397629    2.000000 Uiso  1.0000
 Cl4_B_n41 Cl1-   -0.237100   -0.237100    0.397629    2.000000 Uiso  1.0000
 Cl5_B_n41 Cl1-    0.237100    0.237100    0.402371    2.000000 Uiso  1.0000
 Cl6_B_n41 Cl1-    0.237100    0.237100    0.402371    2.000000 Uiso  1.0000
 Li1a_B_n41 Li+    0.000000    0.000000    0.400000    2.000000 Uiso  1.0000
 Li1b_B_n41 Li+    0.000000    0.000000    0.400000    2.000000 Uiso  1.0000
 Li2a_B_n41 Li+    0.500000    0.500000    0.405000    2.000000 Uiso  0.3650
 Li2b_B_n41 Li+    0.500000    0.500000    0.405000    2.000000 Uiso  0.3650
 Li3_B_n41 Li+    0.500000    0.500000    0.405000    2.000000 Uiso  0.2700
 Sc1_B_n42 Sc3+    0.000000    0.000000    0.410000    2.000000 Uiso  1.0000
 Cl1_B_n42 Cl1-    0.231300    0.231300    0.412313    2.000000 Uiso  1.0000
 Cl2_B_n42 Cl1-   -0.231300   -0.231300    0.407687    2.000000 Uiso  1.0000
 Cl3_B_n42 Cl1-   -0.237100   -0.237100    0.407629    2.000000 Uiso  1.0000
 Cl4_B_n42 Cl1-   -0.237100   -0.237100    0.407629    2.000000 Uiso  1.0000
 Cl5_B_n42 Cl1-    0.237100    0.237100    0.412371    2.000000 Uiso  1.0000
 Cl6_B_n42 Cl1-    0.237100    0.237100    0.412371    2.000000 Uiso  1.0000
 Li1a_B_n42 Li+    0.000000    0.000000    0.410000    2.000000 Uiso  1.0000
 Li1b_B_n42 Li+    0.000000    0.000000    0.410000    2.000000 Uiso  1.0000
 Li2a_B_n42 Li+    0.500000    0.500000    0.415000    2.000000 Uiso  0.3650
 Li2b_B_n42 Li+    0.500000    0.500000    0.415000    2.000000 Uiso  0.3650
 Li3_B_n42 Li+    0.500000    0.500000    0.415000    2.000000 Uiso  0.2700
 Sc1_B_n43 Sc3+    0.000000    0.000000    0.420000    2.000000 Uiso  1.0000
 Cl1_B_n43 Cl1-    0.231300    0.231300    0.422313    2.000000 Uiso  1.0000
 Cl2_B_n43 Cl1-   -0.231300   -0.231300    0.417687    2.000000 Uiso  1.0000
 Cl3_B_n43 Cl1-   -0.237100   -0.237100    0.417629    2.000000 Uiso  1.0000
 Cl4_B_n43 Cl1-   -0.237100   -0.237100    0.417629    2.000000 Uiso  1.0000
 Cl5_B_n43 Cl1-    0.237100    0.237100    0.422371    2.000000 Uiso  1.0000
 Cl6_B_n43 Cl1-    0.237100    0.237100    0.422371    2.000000 Uiso  1.0000
 Li1a_B_n43 Li+    0.000000    0.000000    0.420000    2.000000 Uiso  1.0000
 Li1b_B_n43 Li+    0.000000    0.000000    0.420000    2.000000 Uiso  1.0000
 Li2a_B_n43 Li+    0.500000    0.500000    0.425000    2.000000 Uiso  0.3650
 Li2b_B_n43 Li+    0.500000    0.500000    0.425000    2.000000 Uiso  0.3650
 Li3_B_n43 Li+    0.500000    0.500000    0.425000    2.000000 Uiso  0.2700
 Sc1_B_n44 Sc3+    0.000000    0.000000    0.430000    2.000000 Uiso  1.0000
 Cl1_B_n44 Cl1-    0.231300    0.231300    0.432313    2.000000 Uiso  1.0000
 Cl2_B_n44 Cl1-   -0.231300   -0.231300    0.427687    2.000000 Uiso  1.0000
 Cl3_B_n44 Cl1-   -0.237100   -0.237100    0.427629    2.000000 Uiso  1.0000
 Cl4_B_n44 Cl1-   -0.237100   -0.237100    0.427629    2.000000 Uiso  1.0000
 Cl5_B_n44 Cl1-    0.237100    0.237100    0.432371    2.000000 Uiso  1.0000
 Cl6_B_n44 Cl1-    0.237100    0.237100    0.432371    2.000000 Uiso  1.0000
 Li1a_B_n44 Li+    0.000000    0.000000    0.430000    2.000000 Uiso  1.0000
 Li1b_B_n44 Li+    0.000000    0.000000    0.430000    2.000000 Uiso  1.0000
 Li2a_B_n44 Li+    0.500000    0.500000    0.435000    2.000000 Uiso  0.3650
 Li2b_B_n44 Li+    0.500000    0.500000    0.435000    2.000000 Uiso  0.3650
 Li3_B_n44 Li+    0.500000    0.500000    0.435000    2.000000 Uiso  0.2700
 Sc1_B_n45 Sc3+    0.000000    0.000000    0.440000    2.000000 Uiso  1.0000
 Cl1_B_n45 Cl1-    0.231300    0.231300    0.442313    2.000000 Uiso  1.0000
 Cl2_B_n45 Cl1-   -0.231300   -0.231300    0.437687    2.000000 Uiso  1.0000
 Cl3_B_n45 Cl1-   -0.237100   -0.237100    0.437629    2.000000 Uiso  1.0000
 Cl4_B_n45 Cl1-   -0.237100   -0.237100    0.437629    2.000000 Uiso  1.0000
 Cl5_B_n45 Cl1-    0.237100    0.237100    0.442371    2.000000 Uiso  1.0000
 Cl6_B_n45 Cl1-    0.237100    0.237100    0.442371    2.000000 Uiso  1.0000
 Li1a_B_n45 Li+    0.000000    0.000000    0.440000    2.000000 Uiso  1.0000
 Li1b_B_n45 Li+    0.000000    0.000000    0.440000    2.000000 Uiso  1.0000
 Li2a_B_n45 Li+    0.500000    0.500000    0.445000    2.000000 Uiso  0.3650
 Li2b_B_n45 Li+    0.500000    0.500000    0.445000    2.000000 Uiso  0.3650
 Li3_B_n45 Li+    0.500000    0.500000    0.445000    2.000000 Uiso  0.2700
 Sc1_B_n46 Sc3+    0.000000    0.000000    0.450000    2.000000 Uiso  1.0000
 Cl1_B_n46 Cl1-    0.231300    0.231300    0.452313    2.000000 Uiso  1.0000
 Cl2_B_n46 Cl1-   -0.231300   -0.231300    0.447687    2.000000 Uiso  1.0000
 Cl3_B_n46 Cl1-   -0.237100   -0.237100    0.447629    2.000000 Uiso  1.0000
 Cl4_B_n46 Cl1-   -0.237100   -0.237100    0.447629    2.000000 Uiso  1.0000
 Cl5_B_n46 Cl1-    0.237100    0.237100    0.452371    2.000000 Uiso  1.0000
 Cl6_B_n46 Cl1-    0.237100    0.237100    0.452371    2.000000 Uiso  1.0000
 Li1a_B_n46 Li+    0.000000    0.000000    0.450000    2.000000 Uiso  1.0000
 Li1b_B_n46 Li+    0.000000    0.000000    0.450000    2.000000 Uiso  1.0000
 Li2a_B_n46 Li+    0.500000    0.500000    0.455000    2.000000 Uiso  0.3650
 Li2b_B_n46 Li+    0.500000    0.500000    0.455000    2.000000 Uiso  0.3650
 Li3_B_n46 Li+    0.500000    0.500000    0.455000    2.000000 Uiso  0.2700
 Sc1_B_n47 Sc3+    0.000000    0.000000    0.460000    2.000000 Uiso  1.0000
 Cl1_B_n47 Cl1-    0.231300    0.231300    0.462313    2.000000 Uiso  1.0000
 Cl2_B_n47 Cl1-   -0.231300   -0.231300    0.457687    2.000000 Uiso  1.0000
 Cl3_B_n47 Cl1-   -0.237100   -0.237100    0.457629    2.000000 Uiso  1.0000
 Cl4_B_n47 Cl1-   -0.237100   -0.237100    0.457629    2.000000 Uiso  1.0000
 Cl5_B_n47 Cl1-    0.237100    0.237100    0.462371    2.000000 Uiso  1.0000
 Cl6_B_n47 Cl1-    0.237100    0.237100    0.462371    2.000000 Uiso  1.0000
 Li1a_B_n47 Li+    0.000000    0.000000    0.460000    2.000000 Uiso  1.0000
 Li1b_B_n47 Li+    0.000000    0.000000    0.460000    2.000000 Uiso  1.0000
 Li2a_B_n47 Li+    0.500000    0.500000    0.465000    2.000000 Uiso  0.3650
 Li2b_B_n47 Li+    0.500000    0.500000    0.465000    2.000000 Uiso  0.3650
 Li3_B_n47 Li+    0.500000    0.500000    0.465000    2.000000 Uiso  0.2700
 Sc1_B_n48 Sc3+    0.000000    0.000000    0.470000    2.000000 Uiso  1.0000
 Cl1_B_n48 Cl1-    0.231300    0.231300    0.472313    2.000000 Uiso  1.0000
 Cl2_B_n48 Cl1-   -0.231300   -0.231300    0.467687    2.000000 Uiso  1.0000
 Cl3_B_n48 Cl1-   -0.237100   -0.237100    0.467629    2.000000 Uiso  1.0000
 Cl4_B_n48 Cl1-   -0.237100   -0.237100    0.467629    2.000000 Uiso  1.0000
 Cl5_B_n48 Cl1-    0.237100    0.237100    0.472371    2.000000 Uiso  1.0000
 Cl6_B_n48 Cl1-    0.237100    0.237100    0.472371    2.000000 Uiso  1.0000
 Li1a_B_n48 Li+    0.000000    0.000000    0.470000    2.000000 Uiso  1.0000
 Li1b_B_n48 Li+    0.000000    0.000000    0.470000    2.000000 Uiso  1.0000
 Li2a_B_n48 Li+    0.500000    0.500000    0.475000    2.000000 Uiso  0.3650
 Li2b_B_n48 Li+    0.500000    0.500000    0.475000    2.000000 Uiso  0.3650
 Li3_B_n48 Li+    0.500000    0.500000    0.475000    2.000000 Uiso  0.2700
 Sc1_B_n49 Sc3+    0.000000    0.000000    0.480000    2.000000 Uiso  1.0000
 Cl1_B_n49 Cl1-    0.231300    0.231300    0.482313    2.000000 Uiso  1.0000
 Cl2_B_n49 Cl1-   -0.231300   -0.231300    0.477687    2.000000 Uiso  1.0000
 Cl3_B_n49 Cl1-   -0.237100   -0.237100    0.477629    2.000000 Uiso  1.0000
 Cl4_B_n49 Cl1-   -0.237100   -0.237100    0.477629    2.000000 Uiso  1.0000
 Cl5_B_n49 Cl1-    0.237100    0.237100    0.482371    2.000000 Uiso  1.0000
 Cl6_B_n49 Cl1-    0.237100    0.237100    0.482371    2.000000 Uiso  1.0000
 Li1a_B_n49 Li+    0.000000    0.000000    0.480000    2.000000 Uiso  1.0000
 Li1b_B_n49 Li+    0.000000    0.000000    0.480000    2.000000 Uiso  1.0000
 Li2a_B_n49 Li+    0.500000    0.500000    0.485000    2.000000 Uiso  0.3650
 Li2b_B_n49 Li+    0.500000    0.500000    0.485000    2.000000 Uiso  0.3650
 Li3_B_n49 Li+    0.500000    0.500000    0.485000    2.000000 Uiso  0.2700
 Sc1_B_n50 Sc3+    0.000000    0.000000    0.490000    2.000000 Uiso  1.0000
 Cl1_B_n50 Cl1-    0.231300    0.231300    0.492313    2.000000 Uiso  1.0000
 Cl2_B_n50 Cl1-   -0.231300   -0.231300    0.487687    2.000000 Uiso  1.0000
 Cl3_B_n50 Cl1-   -0.237100   -0.237100    0.487629    2.000000 Uiso  1.0000
 Cl4_B_n50 Cl1-   -0.237100   -0.237100    0.487629    2.000000 Uiso  1.0000
 Cl5_B_n50 Cl1-    0.237100    0.237100    0.492371    2.000000 Uiso  1.0000
 Cl6_B_n50 Cl1-    0.237100    0.237100    0.492371    2.000000 Uiso  1.0000
 Li1a_B_n50 Li+    0.000000    0.000000    0.490000    2.000000 Uiso  1.0000
 Li1b_B_n50 Li+    0.000000    0.000000    0.490000    2.000000 Uiso  1.0000
 Li2a_B_n50 Li+    0.500000    0.500000    0.495000    2.000000 Uiso  0.3650
 Li2b_B_n50 Li+    0.500000    0.500000    0.495000    2.000000 Uiso  0.3650
 Li3_B_n50 Li+    0.500000    0.500000    0.495000    2.000000 Uiso  0.2700
 Sc1_B_n51 Sc3+    0.000000    0.000000    0.500000    2.000000 Uiso  1.0000
 Cl1_B_n51 Cl1-    0.231300    0.231300    0.502313    2.000000 Uiso  1.0000
 Cl2_B_n51 Cl1-   -0.231300   -0.231300    0.497687    2.000000 Uiso  1.0000
 Cl3_B_n51 Cl1-   -0.237100   -0.237100    0.497629    2.000000 Uiso  1.0000
 Cl4_B_n51 Cl1-   -0.237100   -0.237100    0.497629    2.000000 Uiso  1.0000
 Cl5_B_n51 Cl1-    0.237100    0.237100    0.502371    2.000000 Uiso  1.0000
 Cl6_B_n51 Cl1-    0.237100    0.237100    0.502371    2.000000 Uiso  1.0000
 Li1a_B_n51 Li+    0.000000    0.000000    0.500000    2.000000 Uiso  1.0000
 Li1b_B_n51 Li+    0.000000    0.000000    0.500000    2.000000 Uiso  1.0000
 Li2a_B_n51 Li+    0.500000    0.500000    0.505000    2.000000 Uiso  0.3650
 Li2b_B_n51 Li+    0.500000    0.500000    0.505000    2.000000 Uiso  0.3650
 Li3_B_n51 Li+    0.500000    0.500000    0.505000    2.000000 Uiso  0.2700
 Sc1_B_n52 Sc3+    0.000000    0.000000    0.510000    2.000000 Uiso  1.0000
 Cl1_B_n52 Cl1-    0.231300    0.231300    0.512313    2.000000 Uiso  1.0000
 Cl2_B_n52 Cl1-   -0.231300   -0.231300    0.507687    2.000000 Uiso  1.0000
 Cl3_B_n52 Cl1-   -0.237100   -0.237100    0.507629    2.000000 Uiso  1.0000
 Cl4_B_n52 Cl1-   -0.237100   -0.237100    0.507629    2.000000 Uiso  1.0000
 Cl5_B_n52 Cl1-    0.237100    0.237100    0.512371    2.000000 Uiso  1.0000
 Cl6_B_n52 Cl1-    0.237100    0.237100    0.512371    2.000000 Uiso  1.0000
 Li1a_B_n52 Li+    0.000000    0.000000    0.510000    2.000000 Uiso  1.0000
 Li1b_B_n52 Li+    0.000000    0.000000    0.510000    2.000000 Uiso  1.0000
 Li2a_B_n52 Li+    0.500000    0.500000    0.515000    2.000000 Uiso  0.3650
 Li2b_B_n52 Li+    0.500000    0.500000    0.515000    2.000000 Uiso  0.3650
 Li3_B_n52 Li+    0.500000    0.500000    0.515000    2.000000 Uiso  0.2700
 Sc1_B_n53 Sc3+    0.000000    0.000000    0.520000    2.000000 Uiso  1.0000
 Cl1_B_n53 Cl1-    0.231300    0.231300    0.522313    2.000000 Uiso  1.0000
 Cl2_B_n53 Cl1-   -0.231300   -0.231300    0.517687    2.000000 Uiso  1.0000
 Cl3_B_n53 Cl1-   -0.237100   -0.237100    0.517629    2.000000 Uiso  1.0000
 Cl4_B_n53 Cl1-   -0.237100   -0.237100    0.517629    2.000000 Uiso  1.0000
 Cl5_B_n53 Cl1-    0.237100    0.237100    0.522371    2.000000 Uiso  1.0000
 Cl6_B_n53 Cl1-    0.237100    0.237100    0.522371    2.000000 Uiso  1.0000
 Li1a_B_n53 Li+    0.000000    0.000000    0.520000    2.000000 Uiso  1.0000
 Li1b_B_n53 Li+    0.000000    0.000000    0.520000    2.000000 Uiso  1.0000
 Li2a_B_n53 Li+    0.500000    0.500000    0.525000    2.000000 Uiso  0.3650
 Li2b_B_n53 Li+    0.500000    0.500000    0.525000    2.000000 Uiso  0.3650
 Li3_B_n53 Li+    0.500000    0.500000    0.525000    2.000000 Uiso  0.2700
 Sc1_B_n54 Sc3+    0.000000    0.000000    0.530000    2.000000 Uiso  1.0000
 Cl1_B_n54 Cl1-    0.231300    0.231300    0.532313    2.000000 Uiso  1.0000
 Cl2_B_n54 Cl1-   -0.231300   -0.231300    0.527687    2.000000 Uiso  1.0000
 Cl3_B_n54 Cl1-   -0.237100   -0.237100    0.527629    2.000000 Uiso  1.0000
 Cl4_B_n54 Cl1-   -0.237100   -0.237100    0.527629    2.000000 Uiso  1.0000
 Cl5_B_n54 Cl1-    0.237100    0.237100    0.532371    2.000000 Uiso  1.0000
 Cl6_B_n54 Cl1-    0.237100    0.237100    0.532371    2.000000 Uiso  1.0000
 Li1a_B_n54 Li+    0.000000    0.000000    0.530000    2.000000 Uiso  1.0000
 Li1b_B_n54 Li+    0.000000    0.000000    0.530000    2.000000 Uiso  1.0000
 Li2a_B_n54 Li+    0.500000    0.500000    0.535000    2.000000 Uiso  0.3650
 Li2b_B_n54 Li+    0.500000    0.500000    0.535000    2.000000 Uiso  0.3650
 Li3_B_n54 Li+    0.500000    0.500000    0.535000    2.000000 Uiso  0.2700
 Sc1_B_n55 Sc3+    0.000000    0.000000    0.540000    2.000000 Uiso  1.0000
 Cl1_B_n55 Cl1-    0.231300    0.231300    0.542313    2.000000 Uiso  1.0000
 Cl2_B_n55 Cl1-   -0.231300   -0.231300    0.537687    2.000000 Uiso  1.0000
 Cl3_B_n55 Cl1-   -0.237100   -0.237100    0.537629    2.000000 Uiso  1.0000
 Cl4_B_n55 Cl1-   -0.237100   -0.237100    0.537629    2.000000 Uiso  1.0000
 Cl5_B_n55 Cl1-    0.237100    0.237100    0.542371    2.000000 Uiso  1.0000
 Cl6_B_n55 Cl1-    0.237100    0.237100    0.542371    2.000000 Uiso  1.0000
 Li1a_B_n55 Li+    0.000000    0.000000    0.540000    2.000000 Uiso  1.0000
 Li1b_B_n55 Li+    0.000000    0.000000    0.540000    2.000000 Uiso  1.0000
 Li2a_B_n55 Li+    0.500000    0.500000    0.545000    2.000000 Uiso  0.3650
 Li2b_B_n55 Li+    0.500000    0.500000    0.545000    2.000000 Uiso  0.3650
 Li3_B_n55 Li+    0.500000    0.500000    0.545000    2.000000 Uiso  0.2700
 Sc1_B_n56 Sc3+    0.000000    0.000000    0.550000    2.000000 Uiso  1.0000
 Cl1_B_n56 Cl1-    0.231300    0.231300    0.552313    2.000000 Uiso  1.0000
 Cl2_B_n56 Cl1-   -0.231300   -0.231300    0.547687    2.000000 Uiso  1.0000
 Cl3_B_n56 Cl1-   -0.237100   -0.237100    0.547629    2.000000 Uiso  1.0000
 Cl4_B_n56 Cl1-   -0.237100   -0.237100    0.547629    2.000000 Uiso  1.0000
 Cl5_B_n56 Cl1-    0.237100    0.237100    0.552371    2.000000 Uiso  1.0000
 Cl6_B_n56 Cl1-    0.237100    0.237100    0.552371    2.000000 Uiso  1.0000
 Li1a_B_n56 Li+    0.000000    0.000000    0.550000    2.000000 Uiso  1.0000
 Li1b_B_n56 Li+    0.000000    0.000000    0.550000    2.000000 Uiso  1.0000
 Li2a_B_n56 Li+    0.500000    0.500000    0.555000    2.000000 Uiso  0.3650
 Li2b_B_n56 Li+    0.500000    0.500000    0.555000    2.000000 Uiso  0.3650
 Li3_B_n56 Li+    0.500000    0.500000    0.555000    2.000000 Uiso  0.2700
 Sc1_B_n57 Sc3+    0.000000    0.000000    0.560000    2.000000 Uiso  1.0000
 Cl1_B_n57 Cl1-    0.231300    0.231300    0.562313    2.000000 Uiso  1.0000
 Cl2_B_n57 Cl1-   -0.231300   -0.231300    0.557687    2.000000 Uiso  1.0000
 Cl3_B_n57 Cl1-   -0.237100   -0.237100    0.557629    2.000000 Uiso  1.0000
 Cl4_B_n57 Cl1-   -0.237100   -0.237100    0.557629    2.000000 Uiso  1.0000
 Cl5_B_n57 Cl1-    0.237100    0.237100    0.562371    2.000000 Uiso  1.0000
 Cl6_B_n57 Cl1-    0.237100    0.237100    0.562371    2.000000 Uiso  1.0000
 Li1a_B_n57 Li+    0.000000    0.000000    0.560000    2.000000 Uiso  1.0000
 Li1b_B_n57 Li+    0.000000    0.000000    0.560000    2.000000 Uiso  1.0000
 Li2a_B_n57 Li+    0.500000    0.500000    0.565000    2.000000 Uiso  0.3650
 Li2b_B_n57 Li+    0.500000    0.500000    0.565000    2.000000 Uiso  0.3650
 Li3_B_n57 Li+    0.500000    0.500000    0.565000    2.000000 Uiso  0.2700
 Sc1_B_n58 Sc3+    0.000000    0.000000    0.570000    2.000000 Uiso  1.0000
 Cl1_B_n58 Cl1-    0.231300    0.231300    0.572313    2.000000 Uiso  1.0000
 Cl2_B_n58 Cl1-   -0.231300   -0.231300    0.567687    2.000000 Uiso  1.0000
 Cl3_B_n58 Cl1-   -0.237100   -0.237100    0.567629    2.000000 Uiso  1.0000
 Cl4_B_n58 Cl1-   -0.237100   -0.237100    0.567629    2.000000 Uiso  1.0000
 Cl5_B_n58 Cl1-    0.237100    0.237100    0.572371    2.000000 Uiso  1.0000
 Cl6_B_n58 Cl1-    0.237100    0.237100    0.572371    2.000000 Uiso  1.0000
 Li1a_B_n58 Li+    0.000000    0.000000    0.570000    2.000000 Uiso  1.0000
 Li1b_B_n58 Li+    0.000000    0.000000    0.570000    2.000000 Uiso  1.0000
 Li2a_B_n58 Li+    0.500000    0.500000    0.575000    2.000000 Uiso  0.3650
 Li2b_B_n58 Li+    0.500000    0.500000    0.575000    2.000000 Uiso  0.3650
 Li3_B_n58 Li+    0.500000    0.500000    0.575000    2.000000 Uiso  0.2700
 Sc1_B_n59 Sc3+    0.000000    0.000000    0.580000    2.000000 Uiso  1.0000
 Cl1_B_n59 Cl1-    0.231300    0.231300    0.582313    2.000000 Uiso  1.0000
 Cl2_B_n59 Cl1-   -0.231300   -0.231300    0.577687    2.000000 Uiso  1.0000
 Cl3_B_n59 Cl1-   -0.237100   -0.237100    0.577629    2.000000 Uiso  1.0000
 Cl4_B_n59 Cl1-   -0.237100   -0.237100    0.577629    2.000000 Uiso  1.0000
 Cl5_B_n59 Cl1-    0.237100    0.237100    0.582371    2.000000 Uiso  1.0000
 Cl6_B_n59 Cl1-    0.237100    0.237100    0.582371    2.000000 Uiso  1.0000
 Li1a_B_n59 Li+    0.000000    0.000000    0.580000    2.000000 Uiso  1.0000
 Li1b_B_n59 Li+    0.000000    0.000000    0.580000    2.000000 Uiso  1.0000
 Li2a_B_n59 Li+    0.500000    0.500000    0.585000    2.000000 Uiso  0.3650
 Li2b_B_n59 Li+    0.500000    0.500000    0.585000    2.000000 Uiso  0.3650
 Li3_B_n59 Li+    0.500000    0.500000    0.585000    2.000000 Uiso  0.2700
 Sc1_B_n60 Sc3+    0.000000    0.000000    0.590000    2.000000 Uiso  1.0000
 Cl1_B_n60 Cl1-    0.231300    0.231300    0.592313    2.000000 Uiso  1.0000
 Cl2_B_n60 Cl1-   -0.231300   -0.231300    0.587687    2.000000 Uiso  1.0000
 Cl3_B_n60 Cl1-   -0.237100   -0.237100    0.587629    2.000000 Uiso  1.0000
 Cl4_B_n60 Cl1-   -0.237100   -0.237100    0.587629    2.000000 Uiso  1.0000
 Cl5_B_n60 Cl1-    0.237100    0.237100    0.592371    2.000000 Uiso  1.0000
 Cl6_B_n60 Cl1-    0.237100    0.237100    0.592371    2.000000 Uiso  1.0000
 Li1a_B_n60 Li+    0.000000    0.000000    0.590000    2.000000 Uiso  1.0000
 Li1b_B_n60 Li+    0.000000    0.000000    0.590000    2.000000 Uiso  1.0000
 Li2a_B_n60 Li+    0.500000    0.500000    0.595000    2.000000 Uiso  0.3650
 Li2b_B_n60 Li+    0.500000    0.500000    0.595000    2.000000 Uiso  0.3650
 Li3_B_n60 Li+    0.500000    0.500000    0.595000    2.000000 Uiso  0.2700
 Sc1_B_n61 Sc3+    0.000000    0.000000    0.600000    2.000000 Uiso  1.0000
 Cl1_B_n61 Cl1-    0.231300    0.231300    0.602313    2.000000 Uiso  1.0000
 Cl2_B_n61 Cl1-   -0.231300   -0.231300    0.597687    2.000000 Uiso  1.0000
 Cl3_B_n61 Cl1-   -0.237100   -0.237100    0.597629    2.000000 Uiso  1.0000
 Cl4_B_n61 Cl1-   -0.237100   -0.237100    0.597629    2.000000 Uiso  1.0000
 Cl5_B_n61 Cl1-    0.237100    0.237100    0.602371    2.000000 Uiso  1.0000
 Cl6_B_n61 Cl1-    0.237100    0.237100    0.602371    2.000000 Uiso  1.0000
 Li1a_B_n61 Li+    0.000000    0.000000    0.600000    2.000000 Uiso  1.0000
 Li1b_B_n61 Li+    0.000000    0.000000    0.600000    2.000000 Uiso  1.0000
 Li2a_B_n61 Li+    0.500000    0.500000    0.605000    2.000000 Uiso  0.3650
 Li2b_B_n61 Li+    0.500000    0.500000    0.605000    2.000000 Uiso  0.3650
 Li3_B_n61 Li+    0.500000    0.500000    0.605000    2.000000 Uiso  0.2700
 Sc1_B_n62 Sc3+    0.000000    0.000000    0.610000    2.000000 Uiso  1.0000
 Cl1_B_n62 Cl1-    0.231300    0.231300    0.612313    2.000000 Uiso  1.0000
 Cl2_B_n62 Cl1-   -0.231300   -0.231300    0.607687    2.000000 Uiso  1.0000
 Cl3_B_n62 Cl1-   -0.237100   -0.237100    0.607629    2.000000 Uiso  1.0000
 Cl4_B_n62 Cl1-   -0.237100   -0.237100    0.607629    2.000000 Uiso  1.0000
 Cl5_B_n62 Cl1-    0.237100    0.237100    0.612371    2.000000 Uiso  1.0000
 Cl6_B_n62 Cl1-    0.237100    0.237100    0.612371    2.000000 Uiso  1.0000
 Li1a_B_n62 Li+    0.000000    0.000000    0.610000    2.000000 Uiso  1.0000
 Li1b_B_n62 Li+    0.000000    0.000000    0.610000    2.000000 Uiso  1.0000
 Li2a_B_n62 Li+    0.500000    0.500000    0.615000    2.000000 Uiso  0.3650
 Li2b_B_n62 Li+    0.500000    0.500000    0.615000    2.000000 Uiso  0.3650
 Li3_B_n62 Li+    0.500000    0.500000    0.615000    2.000000 Uiso  0.2700
 Sc1_B_n63 Sc3+    0.000000    0.000000    0.620000    2.000000 Uiso  1.0000
 Cl1_B_n63 Cl1-    0.231300    0.231300    0.622313    2.000000 Uiso  1.0000
 Cl2_B_n63 Cl1-   -0.231300   -0.231300    0.617687    2.000000 Uiso  1.0000
 Cl3_B_n63 Cl1-   -0.237100   -0.237100    0.617629    2.000000 Uiso  1.0000
 Cl4_B_n63 Cl1-   -0.237100   -0.237100    0.617629    2.000000 Uiso  1.0000
 Cl5_B_n63 Cl1-    0.237100    0.237100    0.622371    2.000000 Uiso  1.0000
 Cl6_B_n63 Cl1-    0.237100    0.237100    0.622371    2.000000 Uiso  1.0000
 Li1a_B_n63 Li+    0.000000    0.000000    0.620000    2.000000 Uiso  1.0000
 Li1b_B_n63 Li+    0.000000    0.000000    0.620000    2.000000 Uiso  1.0000
 Li2a_B_n63 Li+    0.500000    0.500000    0.625000    2.000000 Uiso  0.3650
 Li2b_B_n63 Li+    0.500000    0.500000    0.625000    2.000000 Uiso  0.3650
 Li3_B_n63 Li+    0.500000    0.500000    0.625000    2.000000 Uiso  0.2700
 Sc1_B_n64 Sc3+    0.000000    0.000000    0.630000    2.000000 Uiso  1.0000
 Cl1_B_n64 Cl1-    0.231300    0.231300    0.632313    2.000000 Uiso  1.0000
 Cl2_B_n64 Cl1-   -0.231300   -0.231300    0.627687    2.000000 Uiso  1.0000
 Cl3_B_n64 Cl1-   -0.237100   -0.237100    0.627629    2.000000 Uiso  1.0000
 Cl4_B_n64 Cl1-   -0.237100   -0.237100    0.627629    2.000000 Uiso  1.0000
 Cl5_B_n64 Cl1-    0.237100    0.237100    0.632371    2.000000 Uiso  1.0000
 Cl6_B_n64 Cl1-    0.237100    0.237100    0.632371    2.000000 Uiso  1.0000
 Li1a_B_n64 Li+    0.000000    0.000000    0.630000    2.000000 Uiso  1.0000
 Li1b_B_n64 Li+    0.000000    0.000000    0.630000    2.000000 Uiso  1.0000
 Li2a_B_n64 Li+    0.500000    0.500000    0.635000    2.000000 Uiso  0.3650
 Li2b_B_n64 Li+    0.500000    0.500000    0.635000    2.000000 Uiso  0.3650
 Li3_B_n64 Li+    0.500000    0.500000    0.635000    2.000000 Uiso  0.2700
 Sc1_B_n65 Sc3+    0.000000    0.000000    0.640000    2.000000 Uiso  1.0000
 Cl1_B_n65 Cl1-    0.231300    0.231300    0.642313    2.000000 Uiso  1.0000
 Cl2_B_n65 Cl1-   -0.231300   -0.231300    0.637687    2.000000 Uiso  1.0000
 Cl3_B_n65 Cl1-   -0.237100   -0.237100    0.637629    2.000000 Uiso  1.0000
 Cl4_B_n65 Cl1-   -0.237100   -0.237100    0.637629    2.000000 Uiso  1.0000
 Cl5_B_n65 Cl1-    0.237100    0.237100    0.642371    2.000000 Uiso  1.0000
 Cl6_B_n65 Cl1-    0.237100    0.237100    0.642371    2.000000 Uiso  1.0000
 Li1a_B_n65 Li+    0.000000    0.000000    0.640000    2.000000 Uiso  1.0000
 Li1b_B_n65 Li+    0.000000    0.000000    0.640000    2.000000 Uiso  1.0000
 Li2a_B_n65 Li+    0.500000    0.500000    0.645000    2.000000 Uiso  0.3650
 Li2b_B_n65 Li+    0.500000    0.500000    0.645000    2.000000 Uiso  0.3650
 Li3_B_n65 Li+    0.500000    0.500000    0.645000    2.000000 Uiso  0.2700
 Sc1_B_n66 Sc3+    0.000000    0.000000    0.650000    2.000000 Uiso  1.0000
 Cl1_B_n66 Cl1-    0.231300    0.231300    0.652313    2.000000 Uiso  1.0000
 Cl2_B_n66 Cl1-   -0.231300   -0.231300    0.647687    2.000000 Uiso  1.0000
 Cl3_B_n66 Cl1-   -0.237100   -0.237100    0.647629    2.000000 Uiso  1.0000
 Cl4_B_n66 Cl1-   -0.237100   -0.237100    0.647629    2.000000 Uiso  1.0000
 Cl5_B_n66 Cl1-    0.237100    0.237100    0.652371    2.000000 Uiso  1.0000
 Cl6_B_n66 Cl1-    0.237100    0.237100    0.652371    2.000000 Uiso  1.0000
 Li1a_B_n66 Li+    0.000000    0.000000    0.650000    2.000000 Uiso  1.0000
 Li1b_B_n66 Li+    0.000000    0.000000    0.650000    2.000000 Uiso  1.0000
 Li2a_B_n66 Li+    0.500000    0.500000    0.655000    2.000000 Uiso  0.3650
 Li2b_B_n66 Li+    0.500000    0.500000    0.655000    2.000000 Uiso  0.3650
 Li3_B_n66 Li+    0.500000    0.500000    0.655000    2.000000 Uiso  0.2700
 Sc1_B_n67 Sc3+    0.000000    0.000000    0.660000    2.000000 Uiso  1.0000
 Cl1_B_n67 Cl1-    0.231300    0.231300    0.662313    2.000000 Uiso  1.0000
 Cl2_B_n67 Cl1-   -0.231300   -0.231300    0.657687    2.000000 Uiso  1.0000
 Cl3_B_n67 Cl1-   -0.237100   -0.237100    0.657629    2.000000 Uiso  1.0000
 Cl4_B_n67 Cl1-   -0.237100   -0.237100    0.657629    2.000000 Uiso  1.0000
 Cl5_B_n67 Cl1-    0.237100    0.237100    0.662371    2.000000 Uiso  1.0000
 Cl6_B_n67 Cl1-    0.237100    0.237100    0.662371    2.000000 Uiso  1.0000
 Li1a_B_n67 Li+    0.000000    0.000000    0.660000    2.000000 Uiso  1.0000
 Li1b_B_n67 Li+    0.000000    0.000000    0.660000    2.000000 Uiso  1.0000
 Li2a_B_n67 Li+    0.500000    0.500000    0.665000    2.000000 Uiso  0.3650
 Li2b_B_n67 Li+    0.500000    0.500000    0.665000    2.000000 Uiso  0.3650
 Li3_B_n67 Li+    0.500000    0.500000    0.665000    2.000000 Uiso  0.2700
 Sc1_B_n68 Sc3+    0.000000    0.000000    0.670000    2.000000 Uiso  1.0000
 Cl1_B_n68 Cl1-    0.231300    0.231300    0.672313    2.000000 Uiso  1.0000
 Cl2_B_n68 Cl1-   -0.231300   -0.231300    0.667687    2.000000 Uiso  1.0000
 Cl3_B_n68 Cl1-   -0.237100   -0.237100    0.667629    2.000000 Uiso  1.0000
 Cl4_B_n68 Cl1-   -0.237100   -0.237100    0.667629    2.000000 Uiso  1.0000
 Cl5_B_n68 Cl1-    0.237100    0.237100    0.672371    2.000000 Uiso  1.0000
 Cl6_B_n68 Cl1-    0.237100    0.237100    0.672371    2.000000 Uiso  1.0000
 Li1a_B_n68 Li+    0.000000    0.000000    0.670000    2.000000 Uiso  1.0000
 Li1b_B_n68 Li+    0.000000    0.000000    0.670000    2.000000 Uiso  1.0000
 Li2a_B_n68 Li+    0.500000    0.500000    0.675000    2.000000 Uiso  0.3650
 Li2b_B_n68 Li+    0.500000    0.500000    0.675000    2.000000 Uiso  0.3650
 Li3_B_n68 Li+    0.500000    0.500000    0.675000    2.000000 Uiso  0.2700
 Sc1_B_n69 Sc3+    0.000000    0.000000    0.680000    2.000000 Uiso  1.0000
 Cl1_B_n69 Cl1-    0.231300    0.231300    0.682313    2.000000 Uiso  1.0000
 Cl2_B_n69 Cl1-   -0.231300   -0.231300    0.677687    2.000000 Uiso  1.0000
 Cl3_B_n69 Cl1-   -0.237100   -0.237100    0.677629    2.000000 Uiso  1.0000
 Cl4_B_n69 Cl1-   -0.237100   -0.237100    0.677629    2.000000 Uiso  1.0000
 Cl5_B_n69 Cl1-    0.237100    0.237100    0.682371    2.000000 Uiso  1.0000
 Cl6_B_n69 Cl1-    0.237100    0.237100    0.682371    2.000000 Uiso  1.0000
 Li1a_B_n69 Li+    0.000000    0.000000    0.680000    2.000000 Uiso  1.0000
 Li1b_B_n69 Li+    0.000000    0.000000    0.680000    2.000000 Uiso  1.0000
 Li2a_B_n69 Li+    0.500000    0.500000    0.685000    2.000000 Uiso  0.3650
 Li2b_B_n69 Li+    0.500000    0.500000    0.685000    2.000000 Uiso  0.3650
 Li3_B_n69 Li+    0.500000    0.500000    0.685000    2.000000 Uiso  0.2700
 Sc1_B_n70 Sc3+    0.000000    0.000000    0.690000    2.000000 Uiso  1.0000
 Cl1_B_n70 Cl1-    0.231300    0.231300    0.692313    2.000000 Uiso  1.0000
 Cl2_B_n70 Cl1-   -0.231300   -0.231300    0.687687    2.000000 Uiso  1.0000
 Cl3_B_n70 Cl1-   -0.237100   -0.237100    0.687629    2.000000 Uiso  1.0000
 Cl4_B_n70 Cl1-   -0.237100   -0.237100    0.687629    2.000000 Uiso  1.0000
 Cl5_B_n70 Cl1-    0.237100    0.237100    0.692371    2.000000 Uiso  1.0000
 Cl6_B_n70 Cl1-    0.237100    0.237100    0.692371    2.000000 Uiso  1.0000
 Li1a_B_n70 Li+    0.000000    0.000000    0.690000    2.000000 Uiso  1.0000
 Li1b_B_n70 Li+    0.000000    0.000000    0.690000    2.000000 Uiso  1.0000
 Li2a_B_n70 Li+    0.500000    0.500000    0.695000    2.000000 Uiso  0.3650
 Li2b_B_n70 Li+    0.500000    0.500000    0.695000    2.000000 Uiso  0.3650
 Li3_B_n70 Li+    0.500000    0.500000    0.695000    2.000000 Uiso  0.2700
 Sc1_B_n71 Sc3+    0.000000    0.000000    0.700000    2.000000 Uiso  1.0000
 Cl1_B_n71 Cl1-    0.231300    0.231300    0.702313    2.000000 Uiso  1.0000
 Cl2_B_n71 Cl1-   -0.231300   -0.231300    0.697687    2.000000 Uiso  1.0000
 Cl3_B_n71 Cl1-   -0.237100   -0.237100    0.697629    2.000000 Uiso  1.0000
 Cl4_B_n71 Cl1-   -0.237100   -0.237100    0.697629    2.000000 Uiso  1.0000
 Cl5_B_n71 Cl1-    0.237100    0.237100    0.702371    2.000000 Uiso  1.0000
 Cl6_B_n71 Cl1-    0.237100    0.237100    0.702371    2.000000 Uiso  1.0000
 Li1a_B_n71 Li+    0.000000    0.000000    0.700000    2.000000 Uiso  1.0000
 Li1b_B_n71 Li+    0.000000    0.000000    0.700000    2.000000 Uiso  1.0000
 Li2a_B_n71 Li+    0.500000    0.500000    0.705000    2.000000 Uiso  0.3650
 Li2b_B_n71 Li+    0.500000    0.500000    0.705000    2.000000 Uiso  0.3650
 Li3_B_n71 Li+    0.500000    0.500000    0.705000    2.000000 Uiso  0.2700
 Sc1_B_n72 Sc3+    0.000000    0.000000    0.710000    2.000000 Uiso  1.0000
 Cl1_B_n72 Cl1-    0.231300    0.231300    0.712313    2.000000 Uiso  1.0000
 Cl2_B_n72 Cl1-   -0.231300   -0.231300    0.707687    2.000000 Uiso  1.0000
 Cl3_B_n72 Cl1-   -0.237100   -0.237100    0.707629    2.000000 Uiso  1.0000
 Cl4_B_n72 Cl1-   -0.237100   -0.237100    0.707629    2.000000 Uiso  1.0000
 Cl5_B_n72 Cl1-    0.237100    0.237100    0.712371    2.000000 Uiso  1.0000
 Cl6_B_n72 Cl1-    0.237100    0.237100    0.712371    2.000000 Uiso  1.0000
 Li1a_B_n72 Li+    0.000000    0.000000    0.710000    2.000000 Uiso  1.0000
 Li1b_B_n72 Li+    0.000000    0.000000    0.710000    2.000000 Uiso  1.0000
 Li2a_B_n72 Li+    0.500000    0.500000    0.715000    2.000000 Uiso  0.3650
 Li2b_B_n72 Li+    0.500000    0.500000    0.715000    2.000000 Uiso  0.3650
 Li3_B_n72 Li+    0.500000    0.500000    0.715000    2.000000 Uiso  0.2700
 Sc1_B_n73 Sc3+    0.000000    0.000000    0.720000    2.000000 Uiso  1.0000
 Cl1_B_n73 Cl1-    0.231300    0.231300    0.722313    2.000000 Uiso  1.0000
 Cl2_B_n73 Cl1-   -0.231300   -0.231300    0.717687    2.000000 Uiso  1.0000
 Cl3_B_n73 Cl1-   -0.237100   -0.237100    0.717629    2.000000 Uiso  1.0000
 Cl4_B_n73 Cl1-   -0.237100   -0.237100    0.717629    2.000000 Uiso  1.0000
 Cl5_B_n73 Cl1-    0.237100    0.237100    0.722371    2.000000 Uiso  1.0000
 Cl6_B_n73 Cl1-    0.237100    0.237100    0.722371    2.000000 Uiso  1.0000
 Li1a_B_n73 Li+    0.000000    0.000000    0.720000    2.000000 Uiso  1.0000
 Li1b_B_n73 Li+    0.000000    0.000000    0.720000    2.000000 Uiso  1.0000
 Li2a_B_n73 Li+    0.500000    0.500000    0.725000    2.000000 Uiso  0.3650
 Li2b_B_n73 Li+    0.500000    0.500000    0.725000    2.000000 Uiso  0.3650
 Li3_B_n73 Li+    0.500000    0.500000    0.725000    2.000000 Uiso  0.2700
 Sc1_B_n74 Sc3+    0.000000    0.000000    0.730000    2.000000 Uiso  1.0000
 Cl1_B_n74 Cl1-    0.231300    0.231300    0.732313    2.000000 Uiso  1.0000
 Cl2_B_n74 Cl1-   -0.231300   -0.231300    0.727687    2.000000 Uiso  1.0000
 Cl3_B_n74 Cl1-   -0.237100   -0.237100    0.727629    2.000000 Uiso  1.0000
 Cl4_B_n74 Cl1-   -0.237100   -0.237100    0.727629    2.000000 Uiso  1.0000
 Cl5_B_n74 Cl1-    0.237100    0.237100    0.732371    2.000000 Uiso  1.0000
 Cl6_B_n74 Cl1-    0.237100    0.237100    0.732371    2.000000 Uiso  1.0000
 Li1a_B_n74 Li+    0.000000    0.000000    0.730000    2.000000 Uiso  1.0000
 Li1b_B_n74 Li+    0.000000    0.000000    0.730000    2.000000 Uiso  1.0000
 Li2a_B_n74 Li+    0.500000    0.500000    0.735000    2.000000 Uiso  0.3650
 Li2b_B_n74 Li+    0.500000    0.500000    0.735000    2.000000 Uiso  0.3650
 Li3_B_n74 Li+    0.500000    0.500000    0.735000    2.000000 Uiso  0.2700
 Sc1_B_n75 Sc3+    0.000000    0.000000    0.740000    2.000000 Uiso  1.0000
 Cl1_B_n75 Cl1-    0.231300    0.231300    0.742313    2.000000 Uiso  1.0000
 Cl2_B_n75 Cl1-   -0.231300   -0.231300    0.737687    2.000000 Uiso  1.0000
 Cl3_B_n75 Cl1-   -0.237100   -0.237100    0.737629    2.000000 Uiso  1.0000
 Cl4_B_n75 Cl1-   -0.237100   -0.237100    0.737629    2.000000 Uiso  1.0000
 Cl5_B_n75 Cl1-    0.237100    0.237100    0.742371    2.000000 Uiso  1.0000
 Cl6_B_n75 Cl1-    0.237100    0.237100    0.742371    2.000000 Uiso  1.0000
 Li1a_B_n75 Li+    0.000000    0.000000    0.740000    2.000000 Uiso  1.0000
 Li1b_B_n75 Li+    0.000000    0.000000    0.740000    2.000000 Uiso  1.0000
 Li2a_B_n75 Li+    0.500000    0.500000    0.745000    2.000000 Uiso  0.3650
 Li2b_B_n75 Li+    0.500000    0.500000    0.745000    2.000000 Uiso  0.3650
 Li3_B_n75 Li+    0.500000    0.500000    0.745000    2.000000 Uiso  0.2700
 Sc1_B_n76 Sc3+    0.000000    0.000000    0.750000    2.000000 Uiso  1.0000
 Cl1_B_n76 Cl1-    0.231300    0.231300    0.752313    2.000000 Uiso  1.0000
 Cl2_B_n76 Cl1-   -0.231300   -0.231300    0.747687    2.000000 Uiso  1.0000
 Cl3_B_n76 Cl1-   -0.237100   -0.237100    0.747629    2.000000 Uiso  1.0000
 Cl4_B_n76 Cl1-   -0.237100   -0.237100    0.747629    2.000000 Uiso  1.0000
 Cl5_B_n76 Cl1-    0.237100    0.237100    0.752371    2.000000 Uiso  1.0000
 Cl6_B_n76 Cl1-    0.237100    0.237100    0.752371    2.000000 Uiso  1.0000
 Li1a_B_n76 Li+    0.000000    0.000000    0.750000    2.000000 Uiso  1.0000
 Li1b_B_n76 Li+    0.000000    0.000000    0.750000    2.000000 Uiso  1.0000
 Li2a_B_n76 Li+    0.500000    0.500000    0.755000    2.000000 Uiso  0.3650
 Li2b_B_n76 Li+    0.500000    0.500000    0.755000    2.000000 Uiso  0.3650
 Li3_B_n76 Li+    0.500000    0.500000    0.755000    2.000000 Uiso  0.2700
 Sc1_B_n77 Sc3+    0.000000    0.000000    0.760000    2.000000 Uiso  1.0000
 Cl1_B_n77 Cl1-    0.231300    0.231300    0.762313    2.000000 Uiso  1.0000
 Cl2_B_n77 Cl1-   -0.231300   -0.231300    0.757687    2.000000 Uiso  1.0000
 Cl3_B_n77 Cl1-   -0.237100   -0.237100    0.757629    2.000000 Uiso  1.0000
 Cl4_B_n77 Cl1-   -0.237100   -0.237100    0.757629    2.000000 Uiso  1.0000
 Cl5_B_n77 Cl1-    0.237100    0.237100    0.762371    2.000000 Uiso  1.0000
 Cl6_B_n77 Cl1-    0.237100    0.237100    0.762371    2.000000 Uiso  1.0000
 Li1a_B_n77 Li+    0.000000    0.000000    0.760000    2.000000 Uiso  1.0000
 Li1b_B_n77 Li+    0.000000    0.000000    0.760000    2.000000 Uiso  1.0000
 Li2a_B_n77 Li+    0.500000    0.500000    0.765000    2.000000 Uiso  0.3650
 Li2b_B_n77 Li+    0.500000    0.500000    0.765000    2.000000 Uiso  0.3650
 Li3_B_n77 Li+    0.500000    0.500000    0.765000    2.000000 Uiso  0.2700
 Sc1_B_n78 Sc3+    0.000000    0.000000    0.770000    2.000000 Uiso  1.0000
 Cl1_B_n78 Cl1-    0.231300    0.231300    0.772313    2.000000 Uiso  1.0000
 Cl2_B_n78 Cl1-   -0.231300   -0.231300    0.767687    2.000000 Uiso  1.0000
 Cl3_B_n78 Cl1-   -0.237100   -0.237100    0.767629    2.000000 Uiso  1.0000
 Cl4_B_n78 Cl1-   -0.237100   -0.237100    0.767629    2.000000 Uiso  1.0000
 Cl5_B_n78 Cl1-    0.237100    0.237100    0.772371    2.000000 Uiso  1.0000
 Cl6_B_n78 Cl1-    0.237100    0.237100    0.772371    2.000000 Uiso  1.0000
 Li1a_B_n78 Li+    0.000000    0.000000    0.770000    2.000000 Uiso  1.0000
 Li1b_B_n78 Li+    0.000000    0.000000    0.770000    2.000000 Uiso  1.0000
 Li2a_B_n78 Li+    0.500000    0.500000    0.775000    2.000000 Uiso  0.3650
 Li2b_B_n78 Li+    0.500000    0.500000    0.775000    2.000000 Uiso  0.3650
 Li3_B_n78 Li+    0.500000    0.500000    0.775000    2.000000 Uiso  0.2700
 Sc1_B_n79 Sc3+    0.000000    0.000000    0.780000    2.000000 Uiso  1.0000
 Cl1_B_n79 Cl1-    0.231300    0.231300    0.782313    2.000000 Uiso  1.0000
 Cl2_B_n79 Cl1-   -0.231300   -0.231300    0.777687    2.000000 Uiso  1.0000
 Cl3_B_n79 Cl1-   -0.237100   -0.237100    0.777629    2.000000 Uiso  1.0000
 Cl4_B_n79 Cl1-   -0.237100   -0.237100    0.777629    2.000000 Uiso  1.0000
 Cl5_B_n79 Cl1-    0.237100    0.237100    0.782371    2.000000 Uiso  1.0000
 Cl6_B_n79 Cl1-    0.237100    0.237100    0.782371    2.000000 Uiso  1.0000
 Li1a_B_n79 Li+    0.000000    0.000000    0.780000    2.000000 Uiso  1.0000
 Li1b_B_n79 Li+    0.000000    0.000000    0.780000    2.000000 Uiso  1.0000
 Li2a_B_n79 Li+    0.500000    0.500000    0.785000    2.000000 Uiso  0.3650
 Li2b_B_n79 Li+    0.500000    0.500000    0.785000    2.000000 Uiso  0.3650
 Li3_B_n79 Li+    0.500000    0.500000    0.785000    2.000000 Uiso  0.2700
 Sc1_B_n80 Sc3+    0.000000    0.000000    0.790000    2.000000 Uiso  1.0000
 Cl1_B_n80 Cl1-    0.231300    0.231300    0.792313    2.000000 Uiso  1.0000
 Cl2_B_n80 Cl1-   -0.231300   -0.231300    0.787687    2.000000 Uiso  1.0000
 Cl3_B_n80 Cl1-   -0.237100   -0.237100    0.787629    2.000000 Uiso  1.0000
 Cl4_B_n80 Cl1-   -0.237100   -0.237100    0.787629    2.000000 Uiso  1.0000
 Cl5_B_n80 Cl1-    0.237100    0.237100    0.792371    2.000000 Uiso  1.0000
 Cl6_B_n80 Cl1-    0.237100    0.237100    0.792371    2.000000 Uiso  1.0000
 Li1a_B_n80 Li+    0.000000    0.000000    0.790000    2.000000 Uiso  1.0000
 Li1b_B_n80 Li+    0.000000    0.000000    0.790000    2.000000 Uiso  1.0000
 Li2a_B_n80 Li+    0.500000    0.500000    0.795000    2.000000 Uiso  0.3650
 Li2b_B_n80 Li+    0.500000    0.500000    0.795000    2.000000 Uiso  0.3650
 Li3_B_n80 Li+    0.500000    0.500000    0.795000    2.000000 Uiso  0.2700
 Sc1_B_n81 Sc3+    0.000000    0.000000    0.800000    2.000000 Uiso  1.0000
 Cl1_B_n81 Cl1-    0.231300    0.231300    0.802313    2.000000 Uiso  1.0000
 Cl2_B_n81 Cl1-   -0.231300   -0.231300    0.797687    2.000000 Uiso  1.0000
 Cl3_B_n81 Cl1-   -0.237100   -0.237100    0.797629    2.000000 Uiso  1.0000
 Cl4_B_n81 Cl1-   -0.237100   -0.237100    0.797629    2.000000 Uiso  1.0000
 Cl5_B_n81 Cl1-    0.237100    0.237100    0.802371    2.000000 Uiso  1.0000
 Cl6_B_n81 Cl1-    0.237100    0.237100    0.802371    2.000000 Uiso  1.0000
 Li1a_B_n81 Li+    0.000000    0.000000    0.800000    2.000000 Uiso  1.0000
 Li1b_B_n81 Li+    0.000000    0.000000    0.800000    2.000000 Uiso  1.0000
 Li2a_B_n81 Li+    0.500000    0.500000    0.805000    2.000000 Uiso  0.3650
 Li2b_B_n81 Li+    0.500000    0.500000    0.805000    2.000000 Uiso  0.3650
 Li3_B_n81 Li+    0.500000    0.500000    0.805000    2.000000 Uiso  0.2700
 Sc1_B_n82 Sc3+    0.000000    0.000000    0.810000    2.000000 Uiso  1.0000
 Cl1_B_n82 Cl1-    0.231300    0.231300    0.812313    2.000000 Uiso  1.0000
 Cl2_B_n82 Cl1-   -0.231300   -0.231300    0.807687    2.000000 Uiso  1.0000
 Cl3_B_n82 Cl1-   -0.237100   -0.237100    0.807629    2.000000 Uiso  1.0000
 Cl4_B_n82 Cl1-   -0.237100   -0.237100    0.807629    2.000000 Uiso  1.0000
 Cl5_B_n82 Cl1-    0.237100    0.237100    0.812371    2.000000 Uiso  1.0000
 Cl6_B_n82 Cl1-    0.237100    0.237100    0.812371    2.000000 Uiso  1.0000
 Li1a_B_n82 Li+    0.000000    0.000000    0.810000    2.000000 Uiso  1.0000
 Li1b_B_n82 Li+    0.000000    0.000000    0.810000    2.000000 Uiso  1.0000
 Li2a_B_n82 Li+    0.500000    0.500000    0.815000    2.000000 Uiso  0.3650
 Li2b_B_n82 Li+    0.500000    0.500000    0.815000    2.000000 Uiso  0.3650
 Li3_B_n82 Li+    0.500000    0.500000    0.815000    2.000000 Uiso  0.2700
 Sc1_B_n83 Sc3+    0.000000    0.000000    0.820000    2.000000 Uiso  1.0000
 Cl1_B_n83 Cl1-    0.231300    0.231300    0.822313    2.000000 Uiso  1.0000
 Cl2_B_n83 Cl1-   -0.231300   -0.231300    0.817687    2.000000 Uiso  1.0000
 Cl3_B_n83 Cl1-   -0.237100   -0.237100    0.817629    2.000000 Uiso  1.0000
 Cl4_B_n83 Cl1-   -0.237100   -0.237100    0.817629    2.000000 Uiso  1.0000
 Cl5_B_n83 Cl1-    0.237100    0.237100    0.822371    2.000000 Uiso  1.0000
 Cl6_B_n83 Cl1-    0.237100    0.237100    0.822371    2.000000 Uiso  1.0000
 Li1a_B_n83 Li+    0.000000    0.000000    0.820000    2.000000 Uiso  1.0000
 Li1b_B_n83 Li+    0.000000    0.000000    0.820000    2.000000 Uiso  1.0000
 Li2a_B_n83 Li+    0.500000    0.500000    0.825000    2.000000 Uiso  0.3650
 Li2b_B_n83 Li+    0.500000    0.500000    0.825000    2.000000 Uiso  0.3650
 Li3_B_n83 Li+    0.500000    0.500000    0.825000    2.000000 Uiso  0.2700
 Sc1_B_n84 Sc3+    0.000000    0.000000    0.830000    2.000000 Uiso  1.0000
 Cl1_B_n84 Cl1-    0.231300    0.231300    0.832313    2.000000 Uiso  1.0000
 Cl2_B_n84 Cl1-   -0.231300   -0.231300    0.827687    2.000000 Uiso  1.0000
 Cl3_B_n84 Cl1-   -0.237100   -0.237100    0.827629    2.000000 Uiso  1.0000
 Cl4_B_n84 Cl1-   -0.237100   -0.237100    0.827629    2.000000 Uiso  1.0000
 Cl5_B_n84 Cl1-    0.237100    0.237100    0.832371    2.000000 Uiso  1.0000
 Cl6_B_n84 Cl1-    0.237100    0.237100    0.832371    2.000000 Uiso  1.0000
 Li1a_B_n84 Li+    0.000000    0.000000    0.830000    2.000000 Uiso  1.0000
 Li1b_B_n84 Li+    0.000000    0.000000    0.830000    2.000000 Uiso  1.0000
 Li2a_B_n84 Li+    0.500000    0.500000    0.835000    2.000000 Uiso  0.3650
 Li2b_B_n84 Li+    0.500000    0.500000    0.835000    2.000000 Uiso  0.3650
 Li3_B_n84 Li+    0.500000    0.500000    0.835000    2.000000 Uiso  0.2700
 Sc1_B_n85 Sc3+    0.000000    0.000000    0.840000    2.000000 Uiso  1.0000
 Cl1_B_n85 Cl1-    0.231300    0.231300    0.842313    2.000000 Uiso  1.0000
 Cl2_B_n85 Cl1-   -0.231300   -0.231300    0.837687    2.000000 Uiso  1.0000
 Cl3_B_n85 Cl1-   -0.237100   -0.237100    0.837629    2.000000 Uiso  1.0000
 Cl4_B_n85 Cl1-   -0.237100   -0.237100    0.837629    2.000000 Uiso  1.0000
 Cl5_B_n85 Cl1-    0.237100    0.237100    0.842371    2.000000 Uiso  1.0000
 Cl6_B_n85 Cl1-    0.237100    0.237100    0.842371    2.000000 Uiso  1.0000
 Li1a_B_n85 Li+    0.000000    0.000000    0.840000    2.000000 Uiso  1.0000
 Li1b_B_n85 Li+    0.000000    0.000000    0.840000    2.000000 Uiso  1.0000
 Li2a_B_n85 Li+    0.500000    0.500000    0.845000    2.000000 Uiso  0.3650
 Li2b_B_n85 Li+    0.500000    0.500000    0.845000    2.000000 Uiso  0.3650
 Li3_B_n85 Li+    0.500000    0.500000    0.845000    2.000000 Uiso  0.2700
 Sc1_B_n86 Sc3+    0.000000    0.000000    0.850000    2.000000 Uiso  1.0000
 Cl1_B_n86 Cl1-    0.231300    0.231300    0.852313    2.000000 Uiso  1.0000
 Cl2_B_n86 Cl1-   -0.231300   -0.231300    0.847687    2.000000 Uiso  1.0000
 Cl3_B_n86 Cl1-   -0.237100   -0.237100    0.847629    2.000000 Uiso  1.0000
 Cl4_B_n86 Cl1-   -0.237100   -0.237100    0.847629    2.000000 Uiso  1.0000
 Cl5_B_n86 Cl1-    0.237100    0.237100    0.852371    2.000000 Uiso  1.0000
 Cl6_B_n86 Cl1-    0.237100    0.237100    0.852371    2.000000 Uiso  1.0000
 Li1a_B_n86 Li+    0.000000    0.000000    0.850000    2.000000 Uiso  1.0000
 Li1b_B_n86 Li+    0.000000    0.000000    0.850000    2.000000 Uiso  1.0000
 Li2a_B_n86 Li+    0.500000    0.500000    0.855000    2.000000 Uiso  0.3650
 Li2b_B_n86 Li+    0.500000    0.500000    0.855000    2.000000 Uiso  0.3650
 Li3_B_n86 Li+    0.500000    0.500000    0.855000    2.000000 Uiso  0.2700
 Sc1_B_n87 Sc3+    0.000000    0.000000    0.860000    2.000000 Uiso  1.0000
 Cl1_B_n87 Cl1-    0.231300    0.231300    0.862313    2.000000 Uiso  1.0000
 Cl2_B_n87 Cl1-   -0.231300   -0.231300    0.857687    2.000000 Uiso  1.0000
 Cl3_B_n87 Cl1-   -0.237100   -0.237100    0.857629    2.000000 Uiso  1.0000
 Cl4_B_n87 Cl1-   -0.237100   -0.237100    0.857629    2.000000 Uiso  1.0000
 Cl5_B_n87 Cl1-    0.237100    0.237100    0.862371    2.000000 Uiso  1.0000
 Cl6_B_n87 Cl1-    0.237100    0.237100    0.862371    2.000000 Uiso  1.0000
 Li1a_B_n87 Li+    0.000000    0.000000    0.860000    2.000000 Uiso  1.0000
 Li1b_B_n87 Li+    0.000000    0.000000    0.860000    2.000000 Uiso  1.0000
 Li2a_B_n87 Li+    0.500000    0.500000    0.865000    2.000000 Uiso  0.3650
 Li2b_B_n87 Li+    0.500000    0.500000    0.865000    2.000000 Uiso  0.3650
 Li3_B_n87 Li+    0.500000    0.500000    0.865000    2.000000 Uiso  0.2700
 Sc1_B_n88 Sc3+    0.000000    0.000000    0.870000    2.000000 Uiso  1.0000
 Cl1_B_n88 Cl1-    0.231300    0.231300    0.872313    2.000000 Uiso  1.0000
 Cl2_B_n88 Cl1-   -0.231300   -0.231300    0.867687    2.000000 Uiso  1.0000
 Cl3_B_n88 Cl1-   -0.237100   -0.237100    0.867629    2.000000 Uiso  1.0000
 Cl4_B_n88 Cl1-   -0.237100   -0.237100    0.867629    2.000000 Uiso  1.0000
 Cl5_B_n88 Cl1-    0.237100    0.237100    0.872371    2.000000 Uiso  1.0000
 Cl6_B_n88 Cl1-    0.237100    0.237100    0.872371    2.000000 Uiso  1.0000
 Li1a_B_n88 Li+    0.000000    0.000000    0.870000    2.000000 Uiso  1.0000
 Li1b_B_n88 Li+    0.000000    0.000000    0.870000    2.000000 Uiso  1.0000
 Li2a_B_n88 Li+    0.500000    0.500000    0.875000    2.000000 Uiso  0.3650
 Li2b_B_n88 Li+    0.500000    0.500000    0.875000    2.000000 Uiso  0.3650
 Li3_B_n88 Li+    0.500000    0.500000    0.875000    2.000000 Uiso  0.2700
 Sc1_B_n89 Sc3+    0.000000    0.000000    0.880000    2.000000 Uiso  1.0000
 Cl1_B_n89 Cl1-    0.231300    0.231300    0.882313    2.000000 Uiso  1.0000
 Cl2_B_n89 Cl1-   -0.231300   -0.231300    0.877687    2.000000 Uiso  1.0000
 Cl3_B_n89 Cl1-   -0.237100   -0.237100    0.877629    2.000000 Uiso  1.0000
 Cl4_B_n89 Cl1-   -0.237100   -0.237100    0.877629    2.000000 Uiso  1.0000
 Cl5_B_n89 Cl1-    0.237100    0.237100    0.882371    2.000000 Uiso  1.0000
 Cl6_B_n89 Cl1-    0.237100    0.237100    0.882371    2.000000 Uiso  1.0000
 Li1a_B_n89 Li+    0.000000    0.000000    0.880000    2.000000 Uiso  1.0000
 Li1b_B_n89 Li+    0.000000    0.000000    0.880000    2.000000 Uiso  1.0000
 Li2a_B_n89 Li+    0.500000    0.500000    0.885000    2.000000 Uiso  0.3650
 Li2b_B_n89 Li+    0.500000    0.500000    0.885000    2.000000 Uiso  0.3650
 Li3_B_n89 Li+    0.500000    0.500000    0.885000    2.000000 Uiso  0.2700
 Sc1_B_n90 Sc3+    0.000000    0.000000    0.890000    2.000000 Uiso  1.0000
 Cl1_B_n90 Cl1-    0.231300    0.231300    0.892313    2.000000 Uiso  1.0000
 Cl2_B_n90 Cl1-   -0.231300   -0.231300    0.887687    2.000000 Uiso  1.0000
 Cl3_B_n90 Cl1-   -0.237100   -0.237100    0.887629    2.000000 Uiso  1.0000
 Cl4_B_n90 Cl1-   -0.237100   -0.237100    0.887629    2.000000 Uiso  1.0000
 Cl5_B_n90 Cl1-    0.237100    0.237100    0.892371    2.000000 Uiso  1.0000
 Cl6_B_n90 Cl1-    0.237100    0.237100    0.892371    2.000000 Uiso  1.0000
 Li1a_B_n90 Li+    0.000000    0.000000    0.890000    2.000000 Uiso  1.0000
 Li1b_B_n90 Li+    0.000000    0.000000    0.890000    2.000000 Uiso  1.0000
 Li2a_B_n90 Li+    0.500000    0.500000    0.895000    2.000000 Uiso  0.3650
 Li2b_B_n90 Li+    0.500000    0.500000    0.895000    2.000000 Uiso  0.3650
 Li3_B_n90 Li+    0.500000    0.500000    0.895000    2.000000 Uiso  0.2700
 Sc1_B_n91 Sc3+    0.000000    0.000000    0.900000    2.000000 Uiso  1.0000
 Cl1_B_n91 Cl1-    0.231300    0.231300    0.902313    2.000000 Uiso  1.0000
 Cl2_B_n91 Cl1-   -0.231300   -0.231300    0.897687    2.000000 Uiso  1.0000
 Cl3_B_n91 Cl1-   -0.237100   -0.237100    0.897629    2.000000 Uiso  1.0000
 Cl4_B_n91 Cl1-   -0.237100   -0.237100    0.897629    2.000000 Uiso  1.0000
 Cl5_B_n91 Cl1-    0.237100    0.237100    0.902371    2.000000 Uiso  1.0000
 Cl6_B_n91 Cl1-    0.237100    0.237100    0.902371    2.000000 Uiso  1.0000
 Li1a_B_n91 Li+    0.000000    0.000000    0.900000    2.000000 Uiso  1.0000
 Li1b_B_n91 Li+    0.000000    0.000000    0.900000    2.000000 Uiso  1.0000
 Li2a_B_n91 Li+    0.500000    0.500000    0.905000    2.000000 Uiso  0.3650
 Li2b_B_n91 Li+    0.500000    0.500000    0.905000    2.000000 Uiso  0.3650
 Li3_B_n91 Li+    0.500000    0.500000    0.905000    2.000000 Uiso  0.2700
 Sc1_B_n92 Sc3+    0.000000    0.000000    0.910000    2.000000 Uiso  1.0000
 Cl1_B_n92 Cl1-    0.231300    0.231300    0.912313    2.000000 Uiso  1.0000
 Cl2_B_n92 Cl1-   -0.231300   -0.231300    0.907687    2.000000 Uiso  1.0000
 Cl3_B_n92 Cl1-   -0.237100   -0.237100    0.907629    2.000000 Uiso  1.0000
 Cl4_B_n92 Cl1-   -0.237100   -0.237100    0.907629    2.000000 Uiso  1.0000
 Cl5_B_n92 Cl1-    0.237100    0.237100    0.912371    2.000000 Uiso  1.0000
 Cl6_B_n92 Cl1-    0.237100    0.237100    0.912371    2.000000 Uiso  1.0000
 Li1a_B_n92 Li+    0.000000    0.000000    0.910000    2.000000 Uiso  1.0000
 Li1b_B_n92 Li+    0.000000    0.000000    0.910000    2.000000 Uiso  1.0000
 Li2a_B_n92 Li+    0.500000    0.500000    0.915000    2.000000 Uiso  0.3650
 Li2b_B_n92 Li+    0.500000    0.500000    0.915000    2.000000 Uiso  0.3650
 Li3_B_n92 Li+    0.500000    0.500000    0.915000    2.000000 Uiso  0.2700
 Sc1_B_n93 Sc3+    0.000000    0.000000    0.920000    2.000000 Uiso  1.0000
 Cl1_B_n93 Cl1-    0.231300    0.231300    0.922313    2.000000 Uiso  1.0000
 Cl2_B_n93 Cl1-   -0.231300   -0.231300    0.917687    2.000000 Uiso  1.0000
 Cl3_B_n93 Cl1-   -0.237100   -0.237100    0.917629    2.000000 Uiso  1.0000
 Cl4_B_n93 Cl1-   -0.237100   -0.237100    0.917629    2.000000 Uiso  1.0000
 Cl5_B_n93 Cl1-    0.237100    0.237100    0.922371    2.000000 Uiso  1.0000
 Cl6_B_n93 Cl1-    0.237100    0.237100    0.922371    2.000000 Uiso  1.0000
 Li1a_B_n93 Li+    0.000000    0.000000    0.920000    2.000000 Uiso  1.0000
 Li1b_B_n93 Li+    0.000000    0.000000    0.920000    2.000000 Uiso  1.0000
 Li2a_B_n93 Li+    0.500000    0.500000    0.925000    2.000000 Uiso  0.3650
 Li2b_B_n93 Li+    0.500000    0.500000    0.925000    2.000000 Uiso  0.3650
 Li3_B_n93 Li+    0.500000    0.500000    0.925000    2.000000 Uiso  0.2700
 Sc1_B_n94 Sc3+    0.000000    0.000000    0.930000    2.000000 Uiso  1.0000
 Cl1_B_n94 Cl1-    0.231300    0.231300    0.932313    2.000000 Uiso  1.0000
 Cl2_B_n94 Cl1-   -0.231300   -0.231300    0.927687    2.000000 Uiso  1.0000
 Cl3_B_n94 Cl1-   -0.237100   -0.237100    0.927629    2.000000 Uiso  1.0000
 Cl4_B_n94 Cl1-   -0.237100   -0.237100    0.927629    2.000000 Uiso  1.0000
 Cl5_B_n94 Cl1-    0.237100    0.237100    0.932371    2.000000 Uiso  1.0000
 Cl6_B_n94 Cl1-    0.237100    0.237100    0.932371    2.000000 Uiso  1.0000
 Li1a_B_n94 Li+    0.000000    0.000000    0.930000    2.000000 Uiso  1.0000
 Li1b_B_n94 Li+    0.000000    0.000000    0.930000    2.000000 Uiso  1.0000
 Li2a_B_n94 Li+    0.500000    0.500000    0.935000    2.000000 Uiso  0.3650
 Li2b_B_n94 Li+    0.500000    0.500000    0.935000    2.000000 Uiso  0.3650
 Li3_B_n94 Li+    0.500000    0.500000    0.935000    2.000000 Uiso  0.2700
 Sc1_B_n95 Sc3+    0.000000    0.000000    0.940000    2.000000 Uiso  1.0000
 Cl1_B_n95 Cl1-    0.231300    0.231300    0.942313    2.000000 Uiso  1.0000
 Cl2_B_n95 Cl1-   -0.231300   -0.231300    0.937687    2.000000 Uiso  1.0000
 Cl3_B_n95 Cl1-   -0.237100   -0.237100    0.937629    2.000000 Uiso  1.0000
 Cl4_B_n95 Cl1-   -0.237100   -0.237100    0.937629    2.000000 Uiso  1.0000
 Cl5_B_n95 Cl1-    0.237100    0.237100    0.942371    2.000000 Uiso  1.0000
 Cl6_B_n95 Cl1-    0.237100    0.237100    0.942371    2.000000 Uiso  1.0000
 Li1a_B_n95 Li+    0.000000    0.000000    0.940000    2.000000 Uiso  1.0000
 Li1b_B_n95 Li+    0.000000    0.000000    0.940000    2.000000 Uiso  1.0000
 Li2a_B_n95 Li+    0.500000    0.500000    0.945000    2.000000 Uiso  0.3650
 Li2b_B_n95 Li+    0.500000    0.500000    0.945000    2.000000 Uiso  0.3650
 Li3_B_n95 Li+    0.500000    0.500000    0.945000    2.000000 Uiso  0.2700
 Sc1_B_n96 Sc3+    0.000000    0.000000    0.950000    2.000000 Uiso  1.0000
 Cl1_B_n96 Cl1-    0.231300    0.231300    0.952313    2.000000 Uiso  1.0000
 Cl2_B_n96 Cl1-   -0.231300   -0.231300    0.947687    2.000000 Uiso  1.0000
 Cl3_B_n96 Cl1-   -0.237100   -0.237100    0.947629    2.000000 Uiso  1.0000
 Cl4_B_n96 Cl1-   -0.237100   -0.237100    0.947629    2.000000 Uiso  1.0000
 Cl5_B_n96 Cl1-    0.237100    0.237100    0.952371    2.000000 Uiso  1.0000
 Cl6_B_n96 Cl1-    0.237100    0.237100    0.952371    2.000000 Uiso  1.0000
 Li1a_B_n96 Li+    0.000000    0.000000    0.950000    2.000000 Uiso  1.0000
 Li1b_B_n96 Li+    0.000000    0.000000    0.950000    2.000000 Uiso  1.0000
 Li2a_B_n96 Li+    0.500000    0.500000    0.955000    2.000000 Uiso  0.3650
 Li2b_B_n96 Li+    0.500000    0.500000    0.955000    2.000000 Uiso  0.3650
 Li3_B_n96 Li+    0.500000    0.500000    0.955000    2.000000 Uiso  0.2700
 Sc1_B_n97 Sc3+    0.000000    0.000000    0.960000    2.000000 Uiso  1.0000
 Cl1_B_n97 Cl1-    0.231300    0.231300    0.962313    2.000000 Uiso  1.0000
 Cl2_B_n97 Cl1-   -0.231300   -0.231300    0.957687    2.000000 Uiso  1.0000
 Cl3_B_n97 Cl1-   -0.237100   -0.237100    0.957629    2.000000 Uiso  1.0000
 Cl4_B_n97 Cl1-   -0.237100   -0.237100    0.957629    2.000000 Uiso  1.0000
 Cl5_B_n97 Cl1-    0.237100    0.237100    0.962371    2.000000 Uiso  1.0000
 Cl6_B_n97 Cl1-    0.237100    0.237100    0.962371    2.000000 Uiso  1.0000
 Li1a_B_n97 Li+    0.000000    0.000000    0.960000    2.000000 Uiso  1.0000
 Li1b_B_n97 Li+    0.000000    0.000000    0.960000    2.000000 Uiso  1.0000
 Li2a_B_n97 Li+    0.500000    0.500000    0.965000    2.000000 Uiso  0.3650
 Li2b_B_n97 Li+    0.500000    0.500000    0.965000    2.000000 Uiso  0.3650
 Li3_B_n97 Li+    0.500000    0.500000    0.965000    2.000000 Uiso  0.2700
 Sc1_B_n98 Sc3+    0.000000    0.000000    0.970000    2.000000 Uiso  1.0000
 Cl1_B_n98 Cl1-    0.231300    0.231300    0.972313    2.000000 Uiso  1.0000
 Cl2_B_n98 Cl1-   -0.231300   -0.231300    0.967687    2.000000 Uiso  1.0000
 Cl3_B_n98 Cl1-   -0.237100   -0.237100    0.967629    2.000000 Uiso  1.0000
 Cl4_B_n98 Cl1-   -0.237100   -0.237100    0.967629    2.000000 Uiso  1.0000
 Cl5_B_n98 Cl1-    0.237100    0.237100    0.972371    2.000000 Uiso  1.0000
 Cl6_B_n98 Cl1-    0.237100    0.237100    0.972371    2.000000 Uiso  1.0000
 Li1a_B_n98 Li+    0.000000    0.000000    0.970000    2.000000 Uiso  1.0000
 Li1b_B_n98 Li+    0.000000    0.000000    0.970000    2.000000 Uiso  1.0000
 Li2a_B_n98 Li+    0.500000    0.500000    0.975000    2.000000 Uiso  0.3650
 Li2b_B_n98 Li+    0.500000    0.500000    0.975000    2.000000 Uiso  0.3650
 Li3_B_n98 Li+    0.500000    0.500000    0.975000    2.000000 Uiso  0.2700
 Sc1_B_n99 Sc3+    0.000000    0.000000    0.980000    2.000000 Uiso  1.0000
 Cl1_B_n99 Cl1-    0.231300    0.231300    0.982313    2.000000 Uiso  1.0000
 Cl2_B_n99 Cl1-   -0.231300   -0.231300    0.977687    2.000000 Uiso  1.0000
 Cl3_B_n99 Cl1-   -0.237100   -0.237100    0.977629    2.000000 Uiso  1.0000
 Cl4_B_n99 Cl1-   -0.237100   -0.237100    0.977629    2.000000 Uiso  1.0000
 Cl5_B_n99 Cl1-    0.237100    0.237100    0.982371    2.000000 Uiso  1.0000
 Cl6_B_n99 Cl1-    0.237100    0.237100    0.982371    2.000000 Uiso  1.0000
 Li1a_B_n99 Li+    0.000000    0.000000    0.980000    2.000000 Uiso  1.0000
 Li1b_B_n99 Li+    0.000000    0.000000    0.980000    2.000000 Uiso  1.0000
 Li2a_B_n99 Li+    0.500000    0.500000    0.985000    2.000000 Uiso  0.3650
 Li2b_B_n99 Li+    0.500000    0.500000    0.985000    2.000000 Uiso  0.3650
 Li3_B_n99 Li+    0.500000    0.500000    0.985000    2.000000 Uiso  0.2700
 Sc1_B_n100 Sc3+    0.000000    0.000000    0.990000    2.000000 Uiso  1.0000
 Cl1_B_n100 Cl1-    0.231300    0.231300    0.992313    2.000000 Uiso  1.0000
 Cl2_B_n100 Cl1-   -0.231300   -0.231300    0.987687    2.000000 Uiso  1.0000
 Cl3_B_n100 Cl1-   -0.237100   -0.237100    0.987629    2.000000 Uiso  1.0000
 Cl4_B_n100 Cl1-   -0.237100   -0.237100    0.987629    2.000000 Uiso  1.0000
 Cl5_B_n100 Cl1-    0.237100    0.237100    0.992371    2.000000 Uiso  1.0000
 Cl6_B_n100 Cl1-    0.237100    0.237100    0.992371    2.000000 Uiso  1.0000
 Li1a_B_n100 Li+    0.000000    0.000000    0.990000    2.000000 Uiso  1.0000
 Li1b_B_n100 Li+    0.000000    0.000000    0.990000    2.000000 Uiso  1.0000
 Li2a_B_n100 Li+    0.500000    0.500000    0.995000    2.000000 Uiso  0.3650
 Li2b_B_n100 Li+    0.500000    0.500000    0.995000    2.000000 Uiso  0.3650
 Li3_B_n100 Li+    0.500000    0.500000    0.995000    2.000000 Uiso  0.2700
