_symmetry_space_group_name_H-M  'P1
_symmetry_Int_Tables_number     1
_symmetry_cell_setting          triclinic

_cell_length_a                  6.391
_cell_length_b                  11.04
_cell_length_c                  639.8
_cell_angle_alpha               90
_cell_angle_beta                109.89
_cell_angle_gamma               90

loop_
  _atom_site_label
  _atom_site_type_symbol
  _atom_site_fract_x
  _atom_site_fract_y
  _atom_site_fract_z
  _atom_site_U_iso_or_equiv
  _atom_site_adp_type
  _atom_site_occupancy
 Sc1_A_n1 Sc3+    0.000000    0.000000    0.000000    2.000000 Uiso  1.0000
 Cl1_A_n1 Cl1-    0.231300    0.000000   -0.002421    2.000000 Uiso  1.0000
 Cl2_A_n1 Cl1-   -0.231300    0.000000    0.002421    2.000000 Uiso  1.0000
 Cl3_A_n1 Cl1-   -0.237100   -0.160900   -0.002387    2.000000 Uiso  1.0000
 Cl4_A_n1 Cl1-   -0.237100    0.160900   -0.002387    2.000000 Uiso  1.0000
 Cl5_A_n1 Cl1-    0.237100   -0.160900    0.002387    2.000000 Uiso  1.0000
 Cl6_A_n1 Cl1-    0.237100    0.160900    0.002387    2.000000 Uiso  1.0000
 Li1a_A_n1 Li+    0.000000    0.334700    0.000000    2.000000 Uiso  1.0000
 Li1b_A_n1 Li+    0.000000    0.665300    0.000000    2.000000 Uiso  1.0000
 Li2a_A_n1 Li+    0.500000    0.169000    0.000000    2.000000 Uiso  0.3650
 Li2b_A_n1 Li+    0.500000    0.831000    0.000000    2.000000 Uiso  0.3650
 Li3_A_n1 Li+    0.500000    0.500000    0.000000    2.000000 Uiso  0.2700
 Sc1_A_n2 Sc3+    0.000000    0.000000    0.010000    2.000000 Uiso  1.0000
 Cl1_A_n2 Cl1-    0.231300    0.000000    0.007579    2.000000 Uiso  1.0000
 Cl2_A_n2 Cl1-   -0.231300    0.000000    0.012421    2.000000 Uiso  1.0000
 Cl3_A_n2 Cl1-   -0.237100   -0.160900    0.007613    2.000000 Uiso  1.0000
 Cl4_A_n2 Cl1-   -0.237100    0.160900    0.007613    2.000000 Uiso  1.0000
 Cl5_A_n2 Cl1-    0.237100   -0.160900    0.012387    2.000000 Uiso  1.0000
 Cl6_A_n2 Cl1-    0.237100    0.160900    0.012387    2.000000 Uiso  1.0000
 Li1a_A_n2 Li+    0.000000    0.334700    0.010000    2.000000 Uiso  1.0000
 Li1b_A_n2 Li+    0.000000    0.665300    0.010000    2.000000 Uiso  1.0000
 Li2a_A_n2 Li+    0.500000    0.169000    0.010000    2.000000 Uiso  0.3650
 Li2b_A_n2 Li+    0.500000    0.831000    0.010000    2.000000 Uiso  0.3650
 Li3_A_n2 Li+    0.500000    0.500000    0.010000    2.000000 Uiso  0.2700
 Sc1_A_n3 Sc3+    0.000000    0.000000    0.020000    2.000000 Uiso  1.0000
 Cl1_A_n3 Cl1-    0.231300    0.000000    0.017579    2.000000 Uiso  1.0000
 Cl2_A_n3 Cl1-   -0.231300    0.000000    0.022421    2.000000 Uiso  1.0000
 Cl3_A_n3 Cl1-   -0.237100   -0.160900    0.017613    2.000000 Uiso  1.0000
 Cl4_A_n3 Cl1-   -0.237100    0.160900    0.017613    2.000000 Uiso  1.0000
 Cl5_A_n3 Cl1-    0.237100   -0.160900    0.022387    2.000000 Uiso  1.0000
 Cl6_A_n3 Cl1-    0.237100    0.160900    0.022387    2.000000 Uiso  1.0000
 Li1a_A_n3 Li+    0.000000    0.334700    0.020000    2.000000 Uiso  1.0000
 Li1b_A_n3 Li+    0.000000    0.665300    0.020000    2.000000 Uiso  1.0000
 Li2a_A_n3 Li+    0.500000    0.169000    0.020000    2.000000 Uiso  0.3650
 Li2b_A_n3 Li+    0.500000    0.831000    0.020000    2.000000 Uiso  0.3650
 Li3_A_n3 Li+    0.500000    0.500000    0.020000    2.000000 Uiso  0.2700
 Sc1_A_n4 Sc3+    0.000000    0.000000    0.030000    2.000000 Uiso  1.0000
 Cl1_A_n4 Cl1-    0.231300    0.000000    0.027579    2.000000 Uiso  1.0000
 Cl2_A_n4 Cl1-   -0.231300    0.000000    0.032421    2.000000 Uiso  1.0000
 Cl3_A_n4 Cl1-   -0.237100   -0.160900    0.027613    2.000000 Uiso  1.0000
 Cl4_A_n4 Cl1-   -0.237100    0.160900    0.027613    2.000000 Uiso  1.0000
 Cl5_A_n4 Cl1-    0.237100   -0.160900    0.032387    2.000000 Uiso  1.0000
 Cl6_A_n4 Cl1-    0.237100    0.160900    0.032387    2.000000 Uiso  1.0000
 Li1a_A_n4 Li+    0.000000    0.334700    0.030000    2.000000 Uiso  1.0000
 Li1b_A_n4 Li+    0.000000    0.665300    0.030000    2.000000 Uiso  1.0000
 Li2a_A_n4 Li+    0.500000    0.169000    0.030000    2.000000 Uiso  0.3650
 Li2b_A_n4 Li+    0.500000    0.831000    0.030000    2.000000 Uiso  0.3650
 Li3_A_n4 Li+    0.500000    0.500000    0.030000    2.000000 Uiso  0.2700
 Sc1_A_n5 Sc3+    0.000000    0.000000    0.040000    2.000000 Uiso  1.0000
 Cl1_A_n5 Cl1-    0.231300    0.000000    0.037579    2.000000 Uiso  1.0000
 Cl2_A_n5 Cl1-   -0.231300    0.000000    0.042421    2.000000 Uiso  1.0000
 Cl3_A_n5 Cl1-   -0.237100   -0.160900    0.037613    2.000000 Uiso  1.0000
 Cl4_A_n5 Cl1-   -0.237100    0.160900    0.037613    2.000000 Uiso  1.0000
 Cl5_A_n5 Cl1-    0.237100   -0.160900    0.042387    2.000000 Uiso  1.0000
 Cl6_A_n5 Cl1-    0.237100    0.160900    0.042387    2.000000 Uiso  1.0000
 Li1a_A_n5 Li+    0.000000    0.334700    0.040000    2.000000 Uiso  1.0000
 Li1b_A_n5 Li+    0.000000    0.665300    0.040000    2.000000 Uiso  1.0000
 Li2a_A_n5 Li+    0.500000    0.169000    0.040000    2.000000 Uiso  0.3650
 Li2b_A_n5 Li+    0.500000    0.831000    0.040000    2.000000 Uiso  0.3650
 Li3_A_n5 Li+    0.500000    0.500000    0.040000    2.000000 Uiso  0.2700
 Sc1_A_n6 Sc3+    0.000000    0.000000    0.050000    2.000000 Uiso  1.0000
 Cl1_A_n6 Cl1-    0.231300    0.000000    0.047579    2.000000 Uiso  1.0000
 Cl2_A_n6 Cl1-   -0.231300    0.000000    0.052421    2.000000 Uiso  1.0000
 Cl3_A_n6 Cl1-   -0.237100   -0.160900    0.047613    2.000000 Uiso  1.0000
 Cl4_A_n6 Cl1-   -0.237100    0.160900    0.047613    2.000000 Uiso  1.0000
 Cl5_A_n6 Cl1-    0.237100   -0.160900    0.052387    2.000000 Uiso  1.0000
 Cl6_A_n6 Cl1-    0.237100    0.160900    0.052387    2.000000 Uiso  1.0000
 Li1a_A_n6 Li+    0.000000    0.334700    0.050000    2.000000 Uiso  1.0000
 Li1b_A_n6 Li+    0.000000    0.665300    0.050000    2.000000 Uiso  1.0000
 Li2a_A_n6 Li+    0.500000    0.169000    0.050000    2.000000 Uiso  0.3650
 Li2b_A_n6 Li+    0.500000    0.831000    0.050000    2.000000 Uiso  0.3650
 Li3_A_n6 Li+    0.500000    0.500000    0.050000    2.000000 Uiso  0.2700
 Sc1_A_n7 Sc3+    0.000000    0.000000    0.060000    2.000000 Uiso  1.0000
 Cl1_A_n7 Cl1-    0.231300    0.000000    0.057579    2.000000 Uiso  1.0000
 Cl2_A_n7 Cl1-   -0.231300    0.000000    0.062421    2.000000 Uiso  1.0000
 Cl3_A_n7 Cl1-   -0.237100   -0.160900    0.057613    2.000000 Uiso  1.0000
 Cl4_A_n7 Cl1-   -0.237100    0.160900    0.057613    2.000000 Uiso  1.0000
 Cl5_A_n7 Cl1-    0.237100   -0.160900    0.062387    2.000000 Uiso  1.0000
 Cl6_A_n7 Cl1-    0.237100    0.160900    0.062387    2.000000 Uiso  1.0000
 Li1a_A_n7 Li+    0.000000    0.334700    0.060000    2.000000 Uiso  1.0000
 Li1b_A_n7 Li+    0.000000    0.665300    0.060000    2.000000 Uiso  1.0000
 Li2a_A_n7 Li+    0.500000    0.169000    0.060000    2.000000 Uiso  0.3650
 Li2b_A_n7 Li+    0.500000    0.831000    0.060000    2.000000 Uiso  0.3650
 Li3_A_n7 Li+    0.500000    0.500000    0.060000    2.000000 Uiso  0.2700
 Sc1_A_n8 Sc3+    0.000000    0.000000    0.070000    2.000000 Uiso  1.0000
 Cl1_A_n8 Cl1-    0.231300    0.000000    0.067579    2.000000 Uiso  1.0000
 Cl2_A_n8 Cl1-   -0.231300    0.000000    0.072421    2.000000 Uiso  1.0000
 Cl3_A_n8 Cl1-   -0.237100   -0.160900    0.067613    2.000000 Uiso  1.0000
 Cl4_A_n8 Cl1-   -0.237100    0.160900    0.067613    2.000000 Uiso  1.0000
 Cl5_A_n8 Cl1-    0.237100   -0.160900    0.072387    2.000000 Uiso  1.0000
 Cl6_A_n8 Cl1-    0.237100    0.160900    0.072387    2.000000 Uiso  1.0000
 Li1a_A_n8 Li+    0.000000    0.334700    0.070000    2.000000 Uiso  1.0000
 Li1b_A_n8 Li+    0.000000    0.665300    0.070000    2.000000 Uiso  1.0000
 Li2a_A_n8 Li+    0.500000    0.169000    0.070000    2.000000 Uiso  0.3650
 Li2b_A_n8 Li+    0.500000    0.831000    0.070000    2.000000 Uiso  0.3650
 Li3_A_n8 Li+    0.500000    0.500000    0.070000    2.000000 Uiso  0.2700
 Sc1_A_n9 Sc3+    0.000000    0.000000    0.080000    2.000000 Uiso  1.0000
 Cl1_A_n9 Cl1-    0.231300    0.000000    0.077579    2.000000 Uiso  1.0000
 Cl2_A_n9 Cl1-   -0.231300    0.000000    0.082421    2.000000 Uiso  1.0000
 Cl3_A_n9 Cl1-   -0.237100   -0.160900    0.077613    2.000000 Uiso  1.0000
 Cl4_A_n9 Cl1-   -0.237100    0.160900    0.077613    2.000000 Uiso  1.0000
 Cl5_A_n9 Cl1-    0.237100   -0.160900    0.082387    2.000000 Uiso  1.0000
 Cl6_A_n9 Cl1-    0.237100    0.160900    0.082387    2.000000 Uiso  1.0000
 Li1a_A_n9 Li+    0.000000    0.334700    0.080000    2.000000 Uiso  1.0000
 Li1b_A_n9 Li+    0.000000    0.665300    0.080000    2.000000 Uiso  1.0000
 Li2a_A_n9 Li+    0.500000    0.169000    0.080000    2.000000 Uiso  0.3650
 Li2b_A_n9 Li+    0.500000    0.831000    0.080000    2.000000 Uiso  0.3650
 Li3_A_n9 Li+    0.500000    0.500000    0.080000    2.000000 Uiso  0.2700
 Sc1_A_n10 Sc3+    0.000000    0.000000    0.090000    2.000000 Uiso  1.0000
 Cl1_A_n10 Cl1-    0.231300    0.000000    0.087579    2.000000 Uiso  1.0000
 Cl2_A_n10 Cl1-   -0.231300    0.000000    0.092421    2.000000 Uiso  1.0000
 Cl3_A_n10 Cl1-   -0.237100   -0.160900    0.087613    2.000000 Uiso  1.0000
 Cl4_A_n10 Cl1-   -0.237100    0.160900    0.087613    2.000000 Uiso  1.0000
 Cl5_A_n10 Cl1-    0.237100   -0.160900    0.092387    2.000000 Uiso  1.0000
 Cl6_A_n10 Cl1-    0.237100    0.160900    0.092387    2.000000 Uiso  1.0000
 Li1a_A_n10 Li+    0.000000    0.334700    0.090000    2.000000 Uiso  1.0000
 Li1b_A_n10 Li+    0.000000    0.665300    0.090000    2.000000 Uiso  1.0000
 Li2a_A_n10 Li+    0.500000    0.169000    0.090000    2.000000 Uiso  0.3650
 Li2b_A_n10 Li+    0.500000    0.831000    0.090000    2.000000 Uiso  0.3650
 Li3_A_n10 Li+    0.500000    0.500000    0.090000    2.000000 Uiso  0.2700
 Sc1_A_n11 Sc3+    0.000000    0.000000    0.100000    2.000000 Uiso  1.0000
 Cl1_A_n11 Cl1-    0.231300    0.000000    0.097579    2.000000 Uiso  1.0000
 Cl2_A_n11 Cl1-   -0.231300    0.000000    0.102421    2.000000 Uiso  1.0000
 Cl3_A_n11 Cl1-   -0.237100   -0.160900    0.097613    2.000000 Uiso  1.0000
 Cl4_A_n11 Cl1-   -0.237100    0.160900    0.097613    2.000000 Uiso  1.0000
 Cl5_A_n11 Cl1-    0.237100   -0.160900    0.102387    2.000000 Uiso  1.0000
 Cl6_A_n11 Cl1-    0.237100    0.160900    0.102387    2.000000 Uiso  1.0000
 Li1a_A_n11 Li+    0.000000    0.334700    0.100000    2.000000 Uiso  1.0000
 Li1b_A_n11 Li+    0.000000    0.665300    0.100000    2.000000 Uiso  1.0000
 Li2a_A_n11 Li+    0.500000    0.169000    0.100000    2.000000 Uiso  0.3650
 Li2b_A_n11 Li+    0.500000    0.831000    0.100000    2.000000 Uiso  0.3650
 Li3_A_n11 Li+    0.500000    0.500000    0.100000    2.000000 Uiso  0.2700
 Sc1_A_n12 Sc3+    0.000000    0.000000    0.110000    2.000000 Uiso  1.0000
 Cl1_A_n12 Cl1-    0.231300    0.000000    0.107579    2.000000 Uiso  1.0000
 Cl2_A_n12 Cl1-   -0.231300    0.000000    0.112421    2.000000 Uiso  1.0000
 Cl3_A_n12 Cl1-   -0.237100   -0.160900    0.107613    2.000000 Uiso  1.0000
 Cl4_A_n12 Cl1-   -0.237100    0.160900    0.107613    2.000000 Uiso  1.0000
 Cl5_A_n12 Cl1-    0.237100   -0.160900    0.112387    2.000000 Uiso  1.0000
 Cl6_A_n12 Cl1-    0.237100    0.160900    0.112387    2.000000 Uiso  1.0000
 Li1a_A_n12 Li+    0.000000    0.334700    0.110000    2.000000 Uiso  1.0000
 Li1b_A_n12 Li+    0.000000    0.665300    0.110000    2.000000 Uiso  1.0000
 Li2a_A_n12 Li+    0.500000    0.169000    0.110000    2.000000 Uiso  0.3650
 Li2b_A_n12 Li+    0.500000    0.831000    0.110000    2.000000 Uiso  0.3650
 Li3_A_n12 Li+    0.500000    0.500000    0.110000    2.000000 Uiso  0.2700
 Sc1_A_n13 Sc3+    0.000000    0.000000    0.120000    2.000000 Uiso  1.0000
 Cl1_A_n13 Cl1-    0.231300    0.000000    0.117579    2.000000 Uiso  1.0000
 Cl2_A_n13 Cl1-   -0.231300    0.000000    0.122421    2.000000 Uiso  1.0000
 Cl3_A_n13 Cl1-   -0.237100   -0.160900    0.117613    2.000000 Uiso  1.0000
 Cl4_A_n13 Cl1-   -0.237100    0.160900    0.117613    2.000000 Uiso  1.0000
 Cl5_A_n13 Cl1-    0.237100   -0.160900    0.122387    2.000000 Uiso  1.0000
 Cl6_A_n13 Cl1-    0.237100    0.160900    0.122387    2.000000 Uiso  1.0000
 Li1a_A_n13 Li+    0.000000    0.334700    0.120000    2.000000 Uiso  1.0000
 Li1b_A_n13 Li+    0.000000    0.665300    0.120000    2.000000 Uiso  1.0000
 Li2a_A_n13 Li+    0.500000    0.169000    0.120000    2.000000 Uiso  0.3650
 Li2b_A_n13 Li+    0.500000    0.831000    0.120000    2.000000 Uiso  0.3650
 Li3_A_n13 Li+    0.500000    0.500000    0.120000    2.000000 Uiso  0.2700
 Sc1_A_n14 Sc3+    0.000000    0.000000    0.130000    2.000000 Uiso  1.0000
 Cl1_A_n14 Cl1-    0.231300    0.000000    0.127579    2.000000 Uiso  1.0000
 Cl2_A_n14 Cl1-   -0.231300    0.000000    0.132421    2.000000 Uiso  1.0000
 Cl3_A_n14 Cl1-   -0.237100   -0.160900    0.127613    2.000000 Uiso  1.0000
 Cl4_A_n14 Cl1-   -0.237100    0.160900    0.127613    2.000000 Uiso  1.0000
 Cl5_A_n14 Cl1-    0.237100   -0.160900    0.132387    2.000000 Uiso  1.0000
 Cl6_A_n14 Cl1-    0.237100    0.160900    0.132387    2.000000 Uiso  1.0000
 Li1a_A_n14 Li+    0.000000    0.334700    0.130000    2.000000 Uiso  1.0000
 Li1b_A_n14 Li+    0.000000    0.665300    0.130000    2.000000 Uiso  1.0000
 Li2a_A_n14 Li+    0.500000    0.169000    0.130000    2.000000 Uiso  0.3650
 Li2b_A_n14 Li+    0.500000    0.831000    0.130000    2.000000 Uiso  0.3650
 Li3_A_n14 Li+    0.500000    0.500000    0.130000    2.000000 Uiso  0.2700
 Sc1_A_n15 Sc3+    0.000000    0.000000    0.140000    2.000000 Uiso  1.0000
 Cl1_A_n15 Cl1-    0.231300    0.000000    0.137579    2.000000 Uiso  1.0000
 Cl2_A_n15 Cl1-   -0.231300    0.000000    0.142421    2.000000 Uiso  1.0000
 Cl3_A_n15 Cl1-   -0.237100   -0.160900    0.137613    2.000000 Uiso  1.0000
 Cl4_A_n15 Cl1-   -0.237100    0.160900    0.137613    2.000000 Uiso  1.0000
 Cl5_A_n15 Cl1-    0.237100   -0.160900    0.142387    2.000000 Uiso  1.0000
 Cl6_A_n15 Cl1-    0.237100    0.160900    0.142387    2.000000 Uiso  1.0000
 Li1a_A_n15 Li+    0.000000    0.334700    0.140000    2.000000 Uiso  1.0000
 Li1b_A_n15 Li+    0.000000    0.665300    0.140000    2.000000 Uiso  1.0000
 Li2a_A_n15 Li+    0.500000    0.169000    0.140000    2.000000 Uiso  0.3650
 Li2b_A_n15 Li+    0.500000    0.831000    0.140000    2.000000 Uiso  0.3650
 Li3_A_n15 Li+    0.500000    0.500000    0.140000    2.000000 Uiso  0.2700
 Sc1_A_n16 Sc3+    0.000000    0.000000    0.150000    2.000000 Uiso  1.0000
 Cl1_A_n16 Cl1-    0.231300    0.000000    0.147579    2.000000 Uiso  1.0000
 Cl2_A_n16 Cl1-   -0.231300    0.000000    0.152421    2.000000 Uiso  1.0000
 Cl3_A_n16 Cl1-   -0.237100   -0.160900    0.147613    2.000000 Uiso  1.0000
 Cl4_A_n16 Cl1-   -0.237100    0.160900    0.147613    2.000000 Uiso  1.0000
 Cl5_A_n16 Cl1-    0.237100   -0.160900    0.152387    2.000000 Uiso  1.0000
 Cl6_A_n16 Cl1-    0.237100    0.160900    0.152387    2.000000 Uiso  1.0000
 Li1a_A_n16 Li+    0.000000    0.334700    0.150000    2.000000 Uiso  1.0000
 Li1b_A_n16 Li+    0.000000    0.665300    0.150000    2.000000 Uiso  1.0000
 Li2a_A_n16 Li+    0.500000    0.169000    0.150000    2.000000 Uiso  0.3650
 Li2b_A_n16 Li+    0.500000    0.831000    0.150000    2.000000 Uiso  0.3650
 Li3_A_n16 Li+    0.500000    0.500000    0.150000    2.000000 Uiso  0.2700
 Sc1_A_n17 Sc3+    0.000000    0.000000    0.160000    2.000000 Uiso  1.0000
 Cl1_A_n17 Cl1-    0.231300    0.000000    0.157579    2.000000 Uiso  1.0000
 Cl2_A_n17 Cl1-   -0.231300    0.000000    0.162421    2.000000 Uiso  1.0000
 Cl3_A_n17 Cl1-   -0.237100   -0.160900    0.157613    2.000000 Uiso  1.0000
 Cl4_A_n17 Cl1-   -0.237100    0.160900    0.157613    2.000000 Uiso  1.0000
 Cl5_A_n17 Cl1-    0.237100   -0.160900    0.162387    2.000000 Uiso  1.0000
 Cl6_A_n17 Cl1-    0.237100    0.160900    0.162387    2.000000 Uiso  1.0000
 Li1a_A_n17 Li+    0.000000    0.334700    0.160000    2.000000 Uiso  1.0000
 Li1b_A_n17 Li+    0.000000    0.665300    0.160000    2.000000 Uiso  1.0000
 Li2a_A_n17 Li+    0.500000    0.169000    0.160000    2.000000 Uiso  0.3650
 Li2b_A_n17 Li+    0.500000    0.831000    0.160000    2.000000 Uiso  0.3650
 Li3_A_n17 Li+    0.500000    0.500000    0.160000    2.000000 Uiso  0.2700
 Sc1_A_n18 Sc3+    0.000000    0.000000    0.170000    2.000000 Uiso  1.0000
 Cl1_A_n18 Cl1-    0.231300    0.000000    0.167579    2.000000 Uiso  1.0000
 Cl2_A_n18 Cl1-   -0.231300    0.000000    0.172421    2.000000 Uiso  1.0000
 Cl3_A_n18 Cl1-   -0.237100   -0.160900    0.167613    2.000000 Uiso  1.0000
 Cl4_A_n18 Cl1-   -0.237100    0.160900    0.167613    2.000000 Uiso  1.0000
 Cl5_A_n18 Cl1-    0.237100   -0.160900    0.172387    2.000000 Uiso  1.0000
 Cl6_A_n18 Cl1-    0.237100    0.160900    0.172387    2.000000 Uiso  1.0000
 Li1a_A_n18 Li+    0.000000    0.334700    0.170000    2.000000 Uiso  1.0000
 Li1b_A_n18 Li+    0.000000    0.665300    0.170000    2.000000 Uiso  1.0000
 Li2a_A_n18 Li+    0.500000    0.169000    0.170000    2.000000 Uiso  0.3650
 Li2b_A_n18 Li+    0.500000    0.831000    0.170000    2.000000 Uiso  0.3650
 Li3_A_n18 Li+    0.500000    0.500000    0.170000    2.000000 Uiso  0.2700
 Sc1_A_n19 Sc3+    0.000000    0.000000    0.180000    2.000000 Uiso  1.0000
 Cl1_A_n19 Cl1-    0.231300    0.000000    0.177579    2.000000 Uiso  1.0000
 Cl2_A_n19 Cl1-   -0.231300    0.000000    0.182421    2.000000 Uiso  1.0000
 Cl3_A_n19 Cl1-   -0.237100   -0.160900    0.177613    2.000000 Uiso  1.0000
 Cl4_A_n19 Cl1-   -0.237100    0.160900    0.177613    2.000000 Uiso  1.0000
 Cl5_A_n19 Cl1-    0.237100   -0.160900    0.182387    2.000000 Uiso  1.0000
 Cl6_A_n19 Cl1-    0.237100    0.160900    0.182387    2.000000 Uiso  1.0000
 Li1a_A_n19 Li+    0.000000    0.334700    0.180000    2.000000 Uiso  1.0000
 Li1b_A_n19 Li+    0.000000    0.665300    0.180000    2.000000 Uiso  1.0000
 Li2a_A_n19 Li+    0.500000    0.169000    0.180000    2.000000 Uiso  0.3650
 Li2b_A_n19 Li+    0.500000    0.831000    0.180000    2.000000 Uiso  0.3650
 Li3_A_n19 Li+    0.500000    0.500000    0.180000    2.000000 Uiso  0.2700
 Sc1_A_n20 Sc3+    0.000000    0.000000    0.190000    2.000000 Uiso  1.0000
 Cl1_A_n20 Cl1-    0.231300    0.000000    0.187579    2.000000 Uiso  1.0000
 Cl2_A_n20 Cl1-   -0.231300    0.000000    0.192421    2.000000 Uiso  1.0000
 Cl3_A_n20 Cl1-   -0.237100   -0.160900    0.187613    2.000000 Uiso  1.0000
 Cl4_A_n20 Cl1-   -0.237100    0.160900    0.187613    2.000000 Uiso  1.0000
 Cl5_A_n20 Cl1-    0.237100   -0.160900    0.192387    2.000000 Uiso  1.0000
 Cl6_A_n20 Cl1-    0.237100    0.160900    0.192387    2.000000 Uiso  1.0000
 Li1a_A_n20 Li+    0.000000    0.334700    0.190000    2.000000 Uiso  1.0000
 Li1b_A_n20 Li+    0.000000    0.665300    0.190000    2.000000 Uiso  1.0000
 Li2a_A_n20 Li+    0.500000    0.169000    0.190000    2.000000 Uiso  0.3650
 Li2b_A_n20 Li+    0.500000    0.831000    0.190000    2.000000 Uiso  0.3650
 Li3_A_n20 Li+    0.500000    0.500000    0.190000    2.000000 Uiso  0.2700
 Sc1_A_n21 Sc3+    0.000000    0.000000    0.200000    2.000000 Uiso  1.0000
 Cl1_A_n21 Cl1-    0.231300    0.000000    0.197579    2.000000 Uiso  1.0000
 Cl2_A_n21 Cl1-   -0.231300    0.000000    0.202421    2.000000 Uiso  1.0000
 Cl3_A_n21 Cl1-   -0.237100   -0.160900    0.197613    2.000000 Uiso  1.0000
 Cl4_A_n21 Cl1-   -0.237100    0.160900    0.197613    2.000000 Uiso  1.0000
 Cl5_A_n21 Cl1-    0.237100   -0.160900    0.202387    2.000000 Uiso  1.0000
 Cl6_A_n21 Cl1-    0.237100    0.160900    0.202387    2.000000 Uiso  1.0000
 Li1a_A_n21 Li+    0.000000    0.334700    0.200000    2.000000 Uiso  1.0000
 Li1b_A_n21 Li+    0.000000    0.665300    0.200000    2.000000 Uiso  1.0000
 Li2a_A_n21 Li+    0.500000    0.169000    0.200000    2.000000 Uiso  0.3650
 Li2b_A_n21 Li+    0.500000    0.831000    0.200000    2.000000 Uiso  0.3650
 Li3_A_n21 Li+    0.500000    0.500000    0.200000    2.000000 Uiso  0.2700
 Sc1_A_n22 Sc3+    0.000000    0.000000    0.210000    2.000000 Uiso  1.0000
 Cl1_A_n22 Cl1-    0.231300    0.000000    0.207579    2.000000 Uiso  1.0000
 Cl2_A_n22 Cl1-   -0.231300    0.000000    0.212421    2.000000 Uiso  1.0000
 Cl3_A_n22 Cl1-   -0.237100   -0.160900    0.207613    2.000000 Uiso  1.0000
 Cl4_A_n22 Cl1-   -0.237100    0.160900    0.207613    2.000000 Uiso  1.0000
 Cl5_A_n22 Cl1-    0.237100   -0.160900    0.212387    2.000000 Uiso  1.0000
 Cl6_A_n22 Cl1-    0.237100    0.160900    0.212387    2.000000 Uiso  1.0000
 Li1a_A_n22 Li+    0.000000    0.334700    0.210000    2.000000 Uiso  1.0000
 Li1b_A_n22 Li+    0.000000    0.665300    0.210000    2.000000 Uiso  1.0000
 Li2a_A_n22 Li+    0.500000    0.169000    0.210000    2.000000 Uiso  0.3650
 Li2b_A_n22 Li+    0.500000    0.831000    0.210000    2.000000 Uiso  0.3650
 Li3_A_n22 Li+    0.500000    0.500000    0.210000    2.000000 Uiso  0.2700
 Sc1_A_n23 Sc3+    0.000000    0.000000    0.220000    2.000000 Uiso  1.0000
 Cl1_A_n23 Cl1-    0.231300    0.000000    0.217579    2.000000 Uiso  1.0000
 Cl2_A_n23 Cl1-   -0.231300    0.000000    0.222421    2.000000 Uiso  1.0000
 Cl3_A_n23 Cl1-   -0.237100   -0.160900    0.217613    2.000000 Uiso  1.0000
 Cl4_A_n23 Cl1-   -0.237100    0.160900    0.217613    2.000000 Uiso  1.0000
 Cl5_A_n23 Cl1-    0.237100   -0.160900    0.222387    2.000000 Uiso  1.0000
 Cl6_A_n23 Cl1-    0.237100    0.160900    0.222387    2.000000 Uiso  1.0000
 Li1a_A_n23 Li+    0.000000    0.334700    0.220000    2.000000 Uiso  1.0000
 Li1b_A_n23 Li+    0.000000    0.665300    0.220000    2.000000 Uiso  1.0000
 Li2a_A_n23 Li+    0.500000    0.169000    0.220000    2.000000 Uiso  0.3650
 Li2b_A_n23 Li+    0.500000    0.831000    0.220000    2.000000 Uiso  0.3650
 Li3_A_n23 Li+    0.500000    0.500000    0.220000    2.000000 Uiso  0.2700
 Sc1_A_n24 Sc3+    0.000000    0.000000    0.230000    2.000000 Uiso  1.0000
 Cl1_A_n24 Cl1-    0.231300    0.000000    0.227579    2.000000 Uiso  1.0000
 Cl2_A_n24 Cl1-   -0.231300    0.000000    0.232421    2.000000 Uiso  1.0000
 Cl3_A_n24 Cl1-   -0.237100   -0.160900    0.227613    2.000000 Uiso  1.0000
 Cl4_A_n24 Cl1-   -0.237100    0.160900    0.227613    2.000000 Uiso  1.0000
 Cl5_A_n24 Cl1-    0.237100   -0.160900    0.232387    2.000000 Uiso  1.0000
 Cl6_A_n24 Cl1-    0.237100    0.160900    0.232387    2.000000 Uiso  1.0000
 Li1a_A_n24 Li+    0.000000    0.334700    0.230000    2.000000 Uiso  1.0000
 Li1b_A_n24 Li+    0.000000    0.665300    0.230000    2.000000 Uiso  1.0000
 Li2a_A_n24 Li+    0.500000    0.169000    0.230000    2.000000 Uiso  0.3650
 Li2b_A_n24 Li+    0.500000    0.831000    0.230000    2.000000 Uiso  0.3650
 Li3_A_n24 Li+    0.500000    0.500000    0.230000    2.000000 Uiso  0.2700
 Sc1_A_n25 Sc3+    0.000000    0.000000    0.240000    2.000000 Uiso  1.0000
 Cl1_A_n25 Cl1-    0.231300    0.000000    0.237579    2.000000 Uiso  1.0000
 Cl2_A_n25 Cl1-   -0.231300    0.000000    0.242421    2.000000 Uiso  1.0000
 Cl3_A_n25 Cl1-   -0.237100   -0.160900    0.237613    2.000000 Uiso  1.0000
 Cl4_A_n25 Cl1-   -0.237100    0.160900    0.237613    2.000000 Uiso  1.0000
 Cl5_A_n25 Cl1-    0.237100   -0.160900    0.242387    2.000000 Uiso  1.0000
 Cl6_A_n25 Cl1-    0.237100    0.160900    0.242387    2.000000 Uiso  1.0000
 Li1a_A_n25 Li+    0.000000    0.334700    0.240000    2.000000 Uiso  1.0000
 Li1b_A_n25 Li+    0.000000    0.665300    0.240000    2.000000 Uiso  1.0000
 Li2a_A_n25 Li+    0.500000    0.169000    0.240000    2.000000 Uiso  0.3650
 Li2b_A_n25 Li+    0.500000    0.831000    0.240000    2.000000 Uiso  0.3650
 Li3_A_n25 Li+    0.500000    0.500000    0.240000    2.000000 Uiso  0.2700
 Sc1_A_n26 Sc3+    0.000000    0.000000    0.250000    2.000000 Uiso  1.0000
 Cl1_A_n26 Cl1-    0.231300    0.000000    0.247579    2.000000 Uiso  1.0000
 Cl2_A_n26 Cl1-   -0.231300    0.000000    0.252421    2.000000 Uiso  1.0000
 Cl3_A_n26 Cl1-   -0.237100   -0.160900    0.247613    2.000000 Uiso  1.0000
 Cl4_A_n26 Cl1-   -0.237100    0.160900    0.247613    2.000000 Uiso  1.0000
 Cl5_A_n26 Cl1-    0.237100   -0.160900    0.252387    2.000000 Uiso  1.0000
 Cl6_A_n26 Cl1-    0.237100    0.160900    0.252387    2.000000 Uiso  1.0000
 Li1a_A_n26 Li+    0.000000    0.334700    0.250000    2.000000 Uiso  1.0000
 Li1b_A_n26 Li+    0.000000    0.665300    0.250000    2.000000 Uiso  1.0000
 Li2a_A_n26 Li+    0.500000    0.169000    0.250000    2.000000 Uiso  0.3650
 Li2b_A_n26 Li+    0.500000    0.831000    0.250000    2.000000 Uiso  0.3650
 Li3_A_n26 Li+    0.500000    0.500000    0.250000    2.000000 Uiso  0.2700
 Sc1_A_n27 Sc3+    0.000000    0.000000    0.260000    2.000000 Uiso  1.0000
 Cl1_A_n27 Cl1-    0.231300    0.000000    0.257579    2.000000 Uiso  1.0000
 Cl2_A_n27 Cl1-   -0.231300    0.000000    0.262421    2.000000 Uiso  1.0000
 Cl3_A_n27 Cl1-   -0.237100   -0.160900    0.257613    2.000000 Uiso  1.0000
 Cl4_A_n27 Cl1-   -0.237100    0.160900    0.257613    2.000000 Uiso  1.0000
 Cl5_A_n27 Cl1-    0.237100   -0.160900    0.262387    2.000000 Uiso  1.0000
 Cl6_A_n27 Cl1-    0.237100    0.160900    0.262387    2.000000 Uiso  1.0000
 Li1a_A_n27 Li+    0.000000    0.334700    0.260000    2.000000 Uiso  1.0000
 Li1b_A_n27 Li+    0.000000    0.665300    0.260000    2.000000 Uiso  1.0000
 Li2a_A_n27 Li+    0.500000    0.169000    0.260000    2.000000 Uiso  0.3650
 Li2b_A_n27 Li+    0.500000    0.831000    0.260000    2.000000 Uiso  0.3650
 Li3_A_n27 Li+    0.500000    0.500000    0.260000    2.000000 Uiso  0.2700
 Sc1_A_n28 Sc3+    0.000000    0.000000    0.270000    2.000000 Uiso  1.0000
 Cl1_A_n28 Cl1-    0.231300    0.000000    0.267579    2.000000 Uiso  1.0000
 Cl2_A_n28 Cl1-   -0.231300    0.000000    0.272421    2.000000 Uiso  1.0000
 Cl3_A_n28 Cl1-   -0.237100   -0.160900    0.267613    2.000000 Uiso  1.0000
 Cl4_A_n28 Cl1-   -0.237100    0.160900    0.267613    2.000000 Uiso  1.0000
 Cl5_A_n28 Cl1-    0.237100   -0.160900    0.272387    2.000000 Uiso  1.0000
 Cl6_A_n28 Cl1-    0.237100    0.160900    0.272387    2.000000 Uiso  1.0000
 Li1a_A_n28 Li+    0.000000    0.334700    0.270000    2.000000 Uiso  1.0000
 Li1b_A_n28 Li+    0.000000    0.665300    0.270000    2.000000 Uiso  1.0000
 Li2a_A_n28 Li+    0.500000    0.169000    0.270000    2.000000 Uiso  0.3650
 Li2b_A_n28 Li+    0.500000    0.831000    0.270000    2.000000 Uiso  0.3650
 Li3_A_n28 Li+    0.500000    0.500000    0.270000    2.000000 Uiso  0.2700
 Sc1_A_n29 Sc3+    0.000000    0.000000    0.280000    2.000000 Uiso  1.0000
 Cl1_A_n29 Cl1-    0.231300    0.000000    0.277579    2.000000 Uiso  1.0000
 Cl2_A_n29 Cl1-   -0.231300    0.000000    0.282421    2.000000 Uiso  1.0000
 Cl3_A_n29 Cl1-   -0.237100   -0.160900    0.277613    2.000000 Uiso  1.0000
 Cl4_A_n29 Cl1-   -0.237100    0.160900    0.277613    2.000000 Uiso  1.0000
 Cl5_A_n29 Cl1-    0.237100   -0.160900    0.282387    2.000000 Uiso  1.0000
 Cl6_A_n29 Cl1-    0.237100    0.160900    0.282387    2.000000 Uiso  1.0000
 Li1a_A_n29 Li+    0.000000    0.334700    0.280000    2.000000 Uiso  1.0000
 Li1b_A_n29 Li+    0.000000    0.665300    0.280000    2.000000 Uiso  1.0000
 Li2a_A_n29 Li+    0.500000    0.169000    0.280000    2.000000 Uiso  0.3650
 Li2b_A_n29 Li+    0.500000    0.831000    0.280000    2.000000 Uiso  0.3650
 Li3_A_n29 Li+    0.500000    0.500000    0.280000    2.000000 Uiso  0.2700
 Sc1_A_n30 Sc3+    0.000000    0.000000    0.290000    2.000000 Uiso  1.0000
 Cl1_A_n30 Cl1-    0.231300    0.000000    0.287579    2.000000 Uiso  1.0000
 Cl2_A_n30 Cl1-   -0.231300    0.000000    0.292421    2.000000 Uiso  1.0000
 Cl3_A_n30 Cl1-   -0.237100   -0.160900    0.287613    2.000000 Uiso  1.0000
 Cl4_A_n30 Cl1-   -0.237100    0.160900    0.287613    2.000000 Uiso  1.0000
 Cl5_A_n30 Cl1-    0.237100   -0.160900    0.292387    2.000000 Uiso  1.0000
 Cl6_A_n30 Cl1-    0.237100    0.160900    0.292387    2.000000 Uiso  1.0000
 Li1a_A_n30 Li+    0.000000    0.334700    0.290000    2.000000 Uiso  1.0000
 Li1b_A_n30 Li+    0.000000    0.665300    0.290000    2.000000 Uiso  1.0000
 Li2a_A_n30 Li+    0.500000    0.169000    0.290000    2.000000 Uiso  0.3650
 Li2b_A_n30 Li+    0.500000    0.831000    0.290000    2.000000 Uiso  0.3650
 Li3_A_n30 Li+    0.500000    0.500000    0.290000    2.000000 Uiso  0.2700
 Sc1_A_n31 Sc3+    0.000000    0.000000    0.300000    2.000000 Uiso  1.0000
 Cl1_A_n31 Cl1-    0.231300    0.000000    0.297579    2.000000 Uiso  1.0000
 Cl2_A_n31 Cl1-   -0.231300    0.000000    0.302421    2.000000 Uiso  1.0000
 Cl3_A_n31 Cl1-   -0.237100   -0.160900    0.297613    2.000000 Uiso  1.0000
 Cl4_A_n31 Cl1-   -0.237100    0.160900    0.297613    2.000000 Uiso  1.0000
 Cl5_A_n31 Cl1-    0.237100   -0.160900    0.302387    2.000000 Uiso  1.0000
 Cl6_A_n31 Cl1-    0.237100    0.160900    0.302387    2.000000 Uiso  1.0000
 Li1a_A_n31 Li+    0.000000    0.334700    0.300000    2.000000 Uiso  1.0000
 Li1b_A_n31 Li+    0.000000    0.665300    0.300000    2.000000 Uiso  1.0000
 Li2a_A_n31 Li+    0.500000    0.169000    0.300000    2.000000 Uiso  0.3650
 Li2b_A_n31 Li+    0.500000    0.831000    0.300000    2.000000 Uiso  0.3650
 Li3_A_n31 Li+    0.500000    0.500000    0.300000    2.000000 Uiso  0.2700
 Sc1_A_n32 Sc3+    0.000000    0.000000    0.310000    2.000000 Uiso  1.0000
 Cl1_A_n32 Cl1-    0.231300    0.000000    0.307579    2.000000 Uiso  1.0000
 Cl2_A_n32 Cl1-   -0.231300    0.000000    0.312421    2.000000 Uiso  1.0000
 Cl3_A_n32 Cl1-   -0.237100   -0.160900    0.307613    2.000000 Uiso  1.0000
 Cl4_A_n32 Cl1-   -0.237100    0.160900    0.307613    2.000000 Uiso  1.0000
 Cl5_A_n32 Cl1-    0.237100   -0.160900    0.312387    2.000000 Uiso  1.0000
 Cl6_A_n32 Cl1-    0.237100    0.160900    0.312387    2.000000 Uiso  1.0000
 Li1a_A_n32 Li+    0.000000    0.334700    0.310000    2.000000 Uiso  1.0000
 Li1b_A_n32 Li+    0.000000    0.665300    0.310000    2.000000 Uiso  1.0000
 Li2a_A_n32 Li+    0.500000    0.169000    0.310000    2.000000 Uiso  0.3650
 Li2b_A_n32 Li+    0.500000    0.831000    0.310000    2.000000 Uiso  0.3650
 Li3_A_n32 Li+    0.500000    0.500000    0.310000    2.000000 Uiso  0.2700
 Sc1_A_n33 Sc3+    0.000000    0.000000    0.320000    2.000000 Uiso  1.0000
 Cl1_A_n33 Cl1-    0.231300    0.000000    0.317579    2.000000 Uiso  1.0000
 Cl2_A_n33 Cl1-   -0.231300    0.000000    0.322421    2.000000 Uiso  1.0000
 Cl3_A_n33 Cl1-   -0.237100   -0.160900    0.317613    2.000000 Uiso  1.0000
 Cl4_A_n33 Cl1-   -0.237100    0.160900    0.317613    2.000000 Uiso  1.0000
 Cl5_A_n33 Cl1-    0.237100   -0.160900    0.322387    2.000000 Uiso  1.0000
 Cl6_A_n33 Cl1-    0.237100    0.160900    0.322387    2.000000 Uiso  1.0000
 Li1a_A_n33 Li+    0.000000    0.334700    0.320000    2.000000 Uiso  1.0000
 Li1b_A_n33 Li+    0.000000    0.665300    0.320000    2.000000 Uiso  1.0000
 Li2a_A_n33 Li+    0.500000    0.169000    0.320000    2.000000 Uiso  0.3650
 Li2b_A_n33 Li+    0.500000    0.831000    0.320000    2.000000 Uiso  0.3650
 Li3_A_n33 Li+    0.500000    0.500000    0.320000    2.000000 Uiso  0.2700
 Sc1_A_n34 Sc3+    0.000000    0.000000    0.330000    2.000000 Uiso  1.0000
 Cl1_A_n34 Cl1-    0.231300    0.000000    0.327579    2.000000 Uiso  1.0000
 Cl2_A_n34 Cl1-   -0.231300    0.000000    0.332421    2.000000 Uiso  1.0000
 Cl3_A_n34 Cl1-   -0.237100   -0.160900    0.327613    2.000000 Uiso  1.0000
 Cl4_A_n34 Cl1-   -0.237100    0.160900    0.327613    2.000000 Uiso  1.0000
 Cl5_A_n34 Cl1-    0.237100   -0.160900    0.332387    2.000000 Uiso  1.0000
 Cl6_A_n34 Cl1-    0.237100    0.160900    0.332387    2.000000 Uiso  1.0000
 Li1a_A_n34 Li+    0.000000    0.334700    0.330000    2.000000 Uiso  1.0000
 Li1b_A_n34 Li+    0.000000    0.665300    0.330000    2.000000 Uiso  1.0000
 Li2a_A_n34 Li+    0.500000    0.169000    0.330000    2.000000 Uiso  0.3650
 Li2b_A_n34 Li+    0.500000    0.831000    0.330000    2.000000 Uiso  0.3650
 Li3_A_n34 Li+    0.500000    0.500000    0.330000    2.000000 Uiso  0.2700
 Sc1_A_n35 Sc3+    0.000000    0.000000    0.340000    2.000000 Uiso  1.0000
 Cl1_A_n35 Cl1-    0.231300    0.000000    0.337579    2.000000 Uiso  1.0000
 Cl2_A_n35 Cl1-   -0.231300    0.000000    0.342421    2.000000 Uiso  1.0000
 Cl3_A_n35 Cl1-   -0.237100   -0.160900    0.337613    2.000000 Uiso  1.0000
 Cl4_A_n35 Cl1-   -0.237100    0.160900    0.337613    2.000000 Uiso  1.0000
 Cl5_A_n35 Cl1-    0.237100   -0.160900    0.342387    2.000000 Uiso  1.0000
 Cl6_A_n35 Cl1-    0.237100    0.160900    0.342387    2.000000 Uiso  1.0000
 Li1a_A_n35 Li+    0.000000    0.334700    0.340000    2.000000 Uiso  1.0000
 Li1b_A_n35 Li+    0.000000    0.665300    0.340000    2.000000 Uiso  1.0000
 Li2a_A_n35 Li+    0.500000    0.169000    0.340000    2.000000 Uiso  0.3650
 Li2b_A_n35 Li+    0.500000    0.831000    0.340000    2.000000 Uiso  0.3650
 Li3_A_n35 Li+    0.500000    0.500000    0.340000    2.000000 Uiso  0.2700
 Sc1_A_n36 Sc3+    0.000000    0.000000    0.350000    2.000000 Uiso  1.0000
 Cl1_A_n36 Cl1-    0.231300    0.000000    0.347579    2.000000 Uiso  1.0000
 Cl2_A_n36 Cl1-   -0.231300    0.000000    0.352421    2.000000 Uiso  1.0000
 Cl3_A_n36 Cl1-   -0.237100   -0.160900    0.347613    2.000000 Uiso  1.0000
 Cl4_A_n36 Cl1-   -0.237100    0.160900    0.347613    2.000000 Uiso  1.0000
 Cl5_A_n36 Cl1-    0.237100   -0.160900    0.352387    2.000000 Uiso  1.0000
 Cl6_A_n36 Cl1-    0.237100    0.160900    0.352387    2.000000 Uiso  1.0000
 Li1a_A_n36 Li+    0.000000    0.334700    0.350000    2.000000 Uiso  1.0000
 Li1b_A_n36 Li+    0.000000    0.665300    0.350000    2.000000 Uiso  1.0000
 Li2a_A_n36 Li+    0.500000    0.169000    0.350000    2.000000 Uiso  0.3650
 Li2b_A_n36 Li+    0.500000    0.831000    0.350000    2.000000 Uiso  0.3650
 Li3_A_n36 Li+    0.500000    0.500000    0.350000    2.000000 Uiso  0.2700
 Sc1_A_n37 Sc3+    0.000000    0.000000    0.360000    2.000000 Uiso  1.0000
 Cl1_A_n37 Cl1-    0.231300    0.000000    0.357579    2.000000 Uiso  1.0000
 Cl2_A_n37 Cl1-   -0.231300    0.000000    0.362421    2.000000 Uiso  1.0000
 Cl3_A_n37 Cl1-   -0.237100   -0.160900    0.357613    2.000000 Uiso  1.0000
 Cl4_A_n37 Cl1-   -0.237100    0.160900    0.357613    2.000000 Uiso  1.0000
 Cl5_A_n37 Cl1-    0.237100   -0.160900    0.362387    2.000000 Uiso  1.0000
 Cl6_A_n37 Cl1-    0.237100    0.160900    0.362387    2.000000 Uiso  1.0000
 Li1a_A_n37 Li+    0.000000    0.334700    0.360000    2.000000 Uiso  1.0000
 Li1b_A_n37 Li+    0.000000    0.665300    0.360000    2.000000 Uiso  1.0000
 Li2a_A_n37 Li+    0.500000    0.169000    0.360000    2.000000 Uiso  0.3650
 Li2b_A_n37 Li+    0.500000    0.831000    0.360000    2.000000 Uiso  0.3650
 Li3_A_n37 Li+    0.500000    0.500000    0.360000    2.000000 Uiso  0.2700
 Sc1_A_n38 Sc3+    0.000000    0.000000    0.370000    2.000000 Uiso  1.0000
 Cl1_A_n38 Cl1-    0.231300    0.000000    0.367579    2.000000 Uiso  1.0000
 Cl2_A_n38 Cl1-   -0.231300    0.000000    0.372421    2.000000 Uiso  1.0000
 Cl3_A_n38 Cl1-   -0.237100   -0.160900    0.367613    2.000000 Uiso  1.0000
 Cl4_A_n38 Cl1-   -0.237100    0.160900    0.367613    2.000000 Uiso  1.0000
 Cl5_A_n38 Cl1-    0.237100   -0.160900    0.372387    2.000000 Uiso  1.0000
 Cl6_A_n38 Cl1-    0.237100    0.160900    0.372387    2.000000 Uiso  1.0000
 Li1a_A_n38 Li+    0.000000    0.334700    0.370000    2.000000 Uiso  1.0000
 Li1b_A_n38 Li+    0.000000    0.665300    0.370000    2.000000 Uiso  1.0000
 Li2a_A_n38 Li+    0.500000    0.169000    0.370000    2.000000 Uiso  0.3650
 Li2b_A_n38 Li+    0.500000    0.831000    0.370000    2.000000 Uiso  0.3650
 Li3_A_n38 Li+    0.500000    0.500000    0.370000    2.000000 Uiso  0.2700
 Sc1_A_n39 Sc3+    0.000000    0.000000    0.380000    2.000000 Uiso  1.0000
 Cl1_A_n39 Cl1-    0.231300    0.000000    0.377579    2.000000 Uiso  1.0000
 Cl2_A_n39 Cl1-   -0.231300    0.000000    0.382421    2.000000 Uiso  1.0000
 Cl3_A_n39 Cl1-   -0.237100   -0.160900    0.377613    2.000000 Uiso  1.0000
 Cl4_A_n39 Cl1-   -0.237100    0.160900    0.377613    2.000000 Uiso  1.0000
 Cl5_A_n39 Cl1-    0.237100   -0.160900    0.382387    2.000000 Uiso  1.0000
 Cl6_A_n39 Cl1-    0.237100    0.160900    0.382387    2.000000 Uiso  1.0000
 Li1a_A_n39 Li+    0.000000    0.334700    0.380000    2.000000 Uiso  1.0000
 Li1b_A_n39 Li+    0.000000    0.665300    0.380000    2.000000 Uiso  1.0000
 Li2a_A_n39 Li+    0.500000    0.169000    0.380000    2.000000 Uiso  0.3650
 Li2b_A_n39 Li+    0.500000    0.831000    0.380000    2.000000 Uiso  0.3650
 Li3_A_n39 Li+    0.500000    0.500000    0.380000    2.000000 Uiso  0.2700
 Sc1_A_n40 Sc3+    0.000000    0.000000    0.390000    2.000000 Uiso  1.0000
 Cl1_A_n40 Cl1-    0.231300    0.000000    0.387579    2.000000 Uiso  1.0000
 Cl2_A_n40 Cl1-   -0.231300    0.000000    0.392421    2.000000 Uiso  1.0000
 Cl3_A_n40 Cl1-   -0.237100   -0.160900    0.387613    2.000000 Uiso  1.0000
 Cl4_A_n40 Cl1-   -0.237100    0.160900    0.387613    2.000000 Uiso  1.0000
 Cl5_A_n40 Cl1-    0.237100   -0.160900    0.392387    2.000000 Uiso  1.0000
 Cl6_A_n40 Cl1-    0.237100    0.160900    0.392387    2.000000 Uiso  1.0000
 Li1a_A_n40 Li+    0.000000    0.334700    0.390000    2.000000 Uiso  1.0000
 Li1b_A_n40 Li+    0.000000    0.665300    0.390000    2.000000 Uiso  1.0000
 Li2a_A_n40 Li+    0.500000    0.169000    0.390000    2.000000 Uiso  0.3650
 Li2b_A_n40 Li+    0.500000    0.831000    0.390000    2.000000 Uiso  0.3650
 Li3_A_n40 Li+    0.500000    0.500000    0.390000    2.000000 Uiso  0.2700
 Sc1_A_n41 Sc3+    0.000000    0.000000    0.400000    2.000000 Uiso  1.0000
 Cl1_A_n41 Cl1-    0.231300    0.000000    0.397579    2.000000 Uiso  1.0000
 Cl2_A_n41 Cl1-   -0.231300    0.000000    0.402421    2.000000 Uiso  1.0000
 Cl3_A_n41 Cl1-   -0.237100   -0.160900    0.397613    2.000000 Uiso  1.0000
 Cl4_A_n41 Cl1-   -0.237100    0.160900    0.397613    2.000000 Uiso  1.0000
 Cl5_A_n41 Cl1-    0.237100   -0.160900    0.402387    2.000000 Uiso  1.0000
 Cl6_A_n41 Cl1-    0.237100    0.160900    0.402387    2.000000 Uiso  1.0000
 Li1a_A_n41 Li+    0.000000    0.334700    0.400000    2.000000 Uiso  1.0000
 Li1b_A_n41 Li+    0.000000    0.665300    0.400000    2.000000 Uiso  1.0000
 Li2a_A_n41 Li+    0.500000    0.169000    0.400000    2.000000 Uiso  0.3650
 Li2b_A_n41 Li+    0.500000    0.831000    0.400000    2.000000 Uiso  0.3650
 Li3_A_n41 Li+    0.500000    0.500000    0.400000    2.000000 Uiso  0.2700
 Sc1_A_n42 Sc3+    0.000000    0.000000    0.410000    2.000000 Uiso  1.0000
 Cl1_A_n42 Cl1-    0.231300    0.000000    0.407579    2.000000 Uiso  1.0000
 Cl2_A_n42 Cl1-   -0.231300    0.000000    0.412421    2.000000 Uiso  1.0000
 Cl3_A_n42 Cl1-   -0.237100   -0.160900    0.407613    2.000000 Uiso  1.0000
 Cl4_A_n42 Cl1-   -0.237100    0.160900    0.407613    2.000000 Uiso  1.0000
 Cl5_A_n42 Cl1-    0.237100   -0.160900    0.412387    2.000000 Uiso  1.0000
 Cl6_A_n42 Cl1-    0.237100    0.160900    0.412387    2.000000 Uiso  1.0000
 Li1a_A_n42 Li+    0.000000    0.334700    0.410000    2.000000 Uiso  1.0000
 Li1b_A_n42 Li+    0.000000    0.665300    0.410000    2.000000 Uiso  1.0000
 Li2a_A_n42 Li+    0.500000    0.169000    0.410000    2.000000 Uiso  0.3650
 Li2b_A_n42 Li+    0.500000    0.831000    0.410000    2.000000 Uiso  0.3650
 Li3_A_n42 Li+    0.500000    0.500000    0.410000    2.000000 Uiso  0.2700
 Sc1_A_n43 Sc3+    0.000000    0.000000    0.420000    2.000000 Uiso  1.0000
 Cl1_A_n43 Cl1-    0.231300    0.000000    0.417579    2.000000 Uiso  1.0000
 Cl2_A_n43 Cl1-   -0.231300    0.000000    0.422421    2.000000 Uiso  1.0000
 Cl3_A_n43 Cl1-   -0.237100   -0.160900    0.417613    2.000000 Uiso  1.0000
 Cl4_A_n43 Cl1-   -0.237100    0.160900    0.417613    2.000000 Uiso  1.0000
 Cl5_A_n43 Cl1-    0.237100   -0.160900    0.422387    2.000000 Uiso  1.0000
 Cl6_A_n43 Cl1-    0.237100    0.160900    0.422387    2.000000 Uiso  1.0000
 Li1a_A_n43 Li+    0.000000    0.334700    0.420000    2.000000 Uiso  1.0000
 Li1b_A_n43 Li+    0.000000    0.665300    0.420000    2.000000 Uiso  1.0000
 Li2a_A_n43 Li+    0.500000    0.169000    0.420000    2.000000 Uiso  0.3650
 Li2b_A_n43 Li+    0.500000    0.831000    0.420000    2.000000 Uiso  0.3650
 Li3_A_n43 Li+    0.500000    0.500000    0.420000    2.000000 Uiso  0.2700
 Sc1_A_n44 Sc3+    0.000000    0.000000    0.430000    2.000000 Uiso  1.0000
 Cl1_A_n44 Cl1-    0.231300    0.000000    0.427579    2.000000 Uiso  1.0000
 Cl2_A_n44 Cl1-   -0.231300    0.000000    0.432421    2.000000 Uiso  1.0000
 Cl3_A_n44 Cl1-   -0.237100   -0.160900    0.427613    2.000000 Uiso  1.0000
 Cl4_A_n44 Cl1-   -0.237100    0.160900    0.427613    2.000000 Uiso  1.0000
 Cl5_A_n44 Cl1-    0.237100   -0.160900    0.432387    2.000000 Uiso  1.0000
 Cl6_A_n44 Cl1-    0.237100    0.160900    0.432387    2.000000 Uiso  1.0000
 Li1a_A_n44 Li+    0.000000    0.334700    0.430000    2.000000 Uiso  1.0000
 Li1b_A_n44 Li+    0.000000    0.665300    0.430000    2.000000 Uiso  1.0000
 Li2a_A_n44 Li+    0.500000    0.169000    0.430000    2.000000 Uiso  0.3650
 Li2b_A_n44 Li+    0.500000    0.831000    0.430000    2.000000 Uiso  0.3650
 Li3_A_n44 Li+    0.500000    0.500000    0.430000    2.000000 Uiso  0.2700
 Sc1_A_n45 Sc3+    0.000000    0.000000    0.440000    2.000000 Uiso  1.0000
 Cl1_A_n45 Cl1-    0.231300    0.000000    0.437579    2.000000 Uiso  1.0000
 Cl2_A_n45 Cl1-   -0.231300    0.000000    0.442421    2.000000 Uiso  1.0000
 Cl3_A_n45 Cl1-   -0.237100   -0.160900    0.437613    2.000000 Uiso  1.0000
 Cl4_A_n45 Cl1-   -0.237100    0.160900    0.437613    2.000000 Uiso  1.0000
 Cl5_A_n45 Cl1-    0.237100   -0.160900    0.442387    2.000000 Uiso  1.0000
 Cl6_A_n45 Cl1-    0.237100    0.160900    0.442387    2.000000 Uiso  1.0000
 Li1a_A_n45 Li+    0.000000    0.334700    0.440000    2.000000 Uiso  1.0000
 Li1b_A_n45 Li+    0.000000    0.665300    0.440000    2.000000 Uiso  1.0000
 Li2a_A_n45 Li+    0.500000    0.169000    0.440000    2.000000 Uiso  0.3650
 Li2b_A_n45 Li+    0.500000    0.831000    0.440000    2.000000 Uiso  0.3650
 Li3_A_n45 Li+    0.500000    0.500000    0.440000    2.000000 Uiso  0.2700
 Sc1_A_n46 Sc3+    0.000000    0.000000    0.450000    2.000000 Uiso  1.0000
 Cl1_A_n46 Cl1-    0.231300    0.000000    0.447579    2.000000 Uiso  1.0000
 Cl2_A_n46 Cl1-   -0.231300    0.000000    0.452421    2.000000 Uiso  1.0000
 Cl3_A_n46 Cl1-   -0.237100   -0.160900    0.447613    2.000000 Uiso  1.0000
 Cl4_A_n46 Cl1-   -0.237100    0.160900    0.447613    2.000000 Uiso  1.0000
 Cl5_A_n46 Cl1-    0.237100   -0.160900    0.452387    2.000000 Uiso  1.0000
 Cl6_A_n46 Cl1-    0.237100    0.160900    0.452387    2.000000 Uiso  1.0000
 Li1a_A_n46 Li+    0.000000    0.334700    0.450000    2.000000 Uiso  1.0000
 Li1b_A_n46 Li+    0.000000    0.665300    0.450000    2.000000 Uiso  1.0000
 Li2a_A_n46 Li+    0.500000    0.169000    0.450000    2.000000 Uiso  0.3650
 Li2b_A_n46 Li+    0.500000    0.831000    0.450000    2.000000 Uiso  0.3650
 Li3_A_n46 Li+    0.500000    0.500000    0.450000    2.000000 Uiso  0.2700
 Sc1_A_n47 Sc3+    0.000000    0.000000    0.460000    2.000000 Uiso  1.0000
 Cl1_A_n47 Cl1-    0.231300    0.000000    0.457579    2.000000 Uiso  1.0000
 Cl2_A_n47 Cl1-   -0.231300    0.000000    0.462421    2.000000 Uiso  1.0000
 Cl3_A_n47 Cl1-   -0.237100   -0.160900    0.457613    2.000000 Uiso  1.0000
 Cl4_A_n47 Cl1-   -0.237100    0.160900    0.457613    2.000000 Uiso  1.0000
 Cl5_A_n47 Cl1-    0.237100   -0.160900    0.462387    2.000000 Uiso  1.0000
 Cl6_A_n47 Cl1-    0.237100    0.160900    0.462387    2.000000 Uiso  1.0000
 Li1a_A_n47 Li+    0.000000    0.334700    0.460000    2.000000 Uiso  1.0000
 Li1b_A_n47 Li+    0.000000    0.665300    0.460000    2.000000 Uiso  1.0000
 Li2a_A_n47 Li+    0.500000    0.169000    0.460000    2.000000 Uiso  0.3650
 Li2b_A_n47 Li+    0.500000    0.831000    0.460000    2.000000 Uiso  0.3650
 Li3_A_n47 Li+    0.500000    0.500000    0.460000    2.000000 Uiso  0.2700
 Sc1_A_n48 Sc3+    0.000000    0.000000    0.470000    2.000000 Uiso  1.0000
 Cl1_A_n48 Cl1-    0.231300    0.000000    0.467579    2.000000 Uiso  1.0000
 Cl2_A_n48 Cl1-   -0.231300    0.000000    0.472421    2.000000 Uiso  1.0000
 Cl3_A_n48 Cl1-   -0.237100   -0.160900    0.467613    2.000000 Uiso  1.0000
 Cl4_A_n48 Cl1-   -0.237100    0.160900    0.467613    2.000000 Uiso  1.0000
 Cl5_A_n48 Cl1-    0.237100   -0.160900    0.472387    2.000000 Uiso  1.0000
 Cl6_A_n48 Cl1-    0.237100    0.160900    0.472387    2.000000 Uiso  1.0000
 Li1a_A_n48 Li+    0.000000    0.334700    0.470000    2.000000 Uiso  1.0000
 Li1b_A_n48 Li+    0.000000    0.665300    0.470000    2.000000 Uiso  1.0000
 Li2a_A_n48 Li+    0.500000    0.169000    0.470000    2.000000 Uiso  0.3650
 Li2b_A_n48 Li+    0.500000    0.831000    0.470000    2.000000 Uiso  0.3650
 Li3_A_n48 Li+    0.500000    0.500000    0.470000    2.000000 Uiso  0.2700
 Sc1_A_n49 Sc3+    0.000000    0.000000    0.480000    2.000000 Uiso  1.0000
 Cl1_A_n49 Cl1-    0.231300    0.000000    0.477579    2.000000 Uiso  1.0000
 Cl2_A_n49 Cl1-   -0.231300    0.000000    0.482421    2.000000 Uiso  1.0000
 Cl3_A_n49 Cl1-   -0.237100   -0.160900    0.477613    2.000000 Uiso  1.0000
 Cl4_A_n49 Cl1-   -0.237100    0.160900    0.477613    2.000000 Uiso  1.0000
 Cl5_A_n49 Cl1-    0.237100   -0.160900    0.482387    2.000000 Uiso  1.0000
 Cl6_A_n49 Cl1-    0.237100    0.160900    0.482387    2.000000 Uiso  1.0000
 Li1a_A_n49 Li+    0.000000    0.334700    0.480000    2.000000 Uiso  1.0000
 Li1b_A_n49 Li+    0.000000    0.665300    0.480000    2.000000 Uiso  1.0000
 Li2a_A_n49 Li+    0.500000    0.169000    0.480000    2.000000 Uiso  0.3650
 Li2b_A_n49 Li+    0.500000    0.831000    0.480000    2.000000 Uiso  0.3650
 Li3_A_n49 Li+    0.500000    0.500000    0.480000    2.000000 Uiso  0.2700
 Sc1_A_n50 Sc3+    0.000000    0.000000    0.490000    2.000000 Uiso  1.0000
 Cl1_A_n50 Cl1-    0.231300    0.000000    0.487579    2.000000 Uiso  1.0000
 Cl2_A_n50 Cl1-   -0.231300    0.000000    0.492421    2.000000 Uiso  1.0000
 Cl3_A_n50 Cl1-   -0.237100   -0.160900    0.487613    2.000000 Uiso  1.0000
 Cl4_A_n50 Cl1-   -0.237100    0.160900    0.487613    2.000000 Uiso  1.0000
 Cl5_A_n50 Cl1-    0.237100   -0.160900    0.492387    2.000000 Uiso  1.0000
 Cl6_A_n50 Cl1-    0.237100    0.160900    0.492387    2.000000 Uiso  1.0000
 Li1a_A_n50 Li+    0.000000    0.334700    0.490000    2.000000 Uiso  1.0000
 Li1b_A_n50 Li+    0.000000    0.665300    0.490000    2.000000 Uiso  1.0000
 Li2a_A_n50 Li+    0.500000    0.169000    0.490000    2.000000 Uiso  0.3650
 Li2b_A_n50 Li+    0.500000    0.831000    0.490000    2.000000 Uiso  0.3650
 Li3_A_n50 Li+    0.500000    0.500000    0.490000    2.000000 Uiso  0.2700
 Sc1_A_n51 Sc3+    0.000000    0.000000    0.500000    2.000000 Uiso  1.0000
 Cl1_A_n51 Cl1-    0.231300    0.000000    0.497579    2.000000 Uiso  1.0000
 Cl2_A_n51 Cl1-   -0.231300    0.000000    0.502421    2.000000 Uiso  1.0000
 Cl3_A_n51 Cl1-   -0.237100   -0.160900    0.497613    2.000000 Uiso  1.0000
 Cl4_A_n51 Cl1-   -0.237100    0.160900    0.497613    2.000000 Uiso  1.0000
 Cl5_A_n51 Cl1-    0.237100   -0.160900    0.502387    2.000000 Uiso  1.0000
 Cl6_A_n51 Cl1-    0.237100    0.160900    0.502387    2.000000 Uiso  1.0000
 Li1a_A_n51 Li+    0.000000    0.334700    0.500000    2.000000 Uiso  1.0000
 Li1b_A_n51 Li+    0.000000    0.665300    0.500000    2.000000 Uiso  1.0000
 Li2a_A_n51 Li+    0.500000    0.169000    0.500000    2.000000 Uiso  0.3650
 Li2b_A_n51 Li+    0.500000    0.831000    0.500000    2.000000 Uiso  0.3650
 Li3_A_n51 Li+    0.500000    0.500000    0.500000    2.000000 Uiso  0.2700
 Sc1_A_n52 Sc3+    0.000000    0.000000    0.510000    2.000000 Uiso  1.0000
 Cl1_A_n52 Cl1-    0.231300    0.000000    0.507579    2.000000 Uiso  1.0000
 Cl2_A_n52 Cl1-   -0.231300    0.000000    0.512421    2.000000 Uiso  1.0000
 Cl3_A_n52 Cl1-   -0.237100   -0.160900    0.507613    2.000000 Uiso  1.0000
 Cl4_A_n52 Cl1-   -0.237100    0.160900    0.507613    2.000000 Uiso  1.0000
 Cl5_A_n52 Cl1-    0.237100   -0.160900    0.512387    2.000000 Uiso  1.0000
 Cl6_A_n52 Cl1-    0.237100    0.160900    0.512387    2.000000 Uiso  1.0000
 Li1a_A_n52 Li+    0.000000    0.334700    0.510000    2.000000 Uiso  1.0000
 Li1b_A_n52 Li+    0.000000    0.665300    0.510000    2.000000 Uiso  1.0000
 Li2a_A_n52 Li+    0.500000    0.169000    0.510000    2.000000 Uiso  0.3650
 Li2b_A_n52 Li+    0.500000    0.831000    0.510000    2.000000 Uiso  0.3650
 Li3_A_n52 Li+    0.500000    0.500000    0.510000    2.000000 Uiso  0.2700
 Sc1_A_n53 Sc3+    0.000000    0.000000    0.520000    2.000000 Uiso  1.0000
 Cl1_A_n53 Cl1-    0.231300    0.000000    0.517579    2.000000 Uiso  1.0000
 Cl2_A_n53 Cl1-   -0.231300    0.000000    0.522421    2.000000 Uiso  1.0000
 Cl3_A_n53 Cl1-   -0.237100   -0.160900    0.517613    2.000000 Uiso  1.0000
 Cl4_A_n53 Cl1-   -0.237100    0.160900    0.517613    2.000000 Uiso  1.0000
 Cl5_A_n53 Cl1-    0.237100   -0.160900    0.522387    2.000000 Uiso  1.0000
 Cl6_A_n53 Cl1-    0.237100    0.160900    0.522387    2.000000 Uiso  1.0000
 Li1a_A_n53 Li+    0.000000    0.334700    0.520000    2.000000 Uiso  1.0000
 Li1b_A_n53 Li+    0.000000    0.665300    0.520000    2.000000 Uiso  1.0000
 Li2a_A_n53 Li+    0.500000    0.169000    0.520000    2.000000 Uiso  0.3650
 Li2b_A_n53 Li+    0.500000    0.831000    0.520000    2.000000 Uiso  0.3650
 Li3_A_n53 Li+    0.500000    0.500000    0.520000    2.000000 Uiso  0.2700
 Sc1_A_n54 Sc3+    0.000000    0.000000    0.530000    2.000000 Uiso  1.0000
 Cl1_A_n54 Cl1-    0.231300    0.000000    0.527579    2.000000 Uiso  1.0000
 Cl2_A_n54 Cl1-   -0.231300    0.000000    0.532421    2.000000 Uiso  1.0000
 Cl3_A_n54 Cl1-   -0.237100   -0.160900    0.527613    2.000000 Uiso  1.0000
 Cl4_A_n54 Cl1-   -0.237100    0.160900    0.527613    2.000000 Uiso  1.0000
 Cl5_A_n54 Cl1-    0.237100   -0.160900    0.532387    2.000000 Uiso  1.0000
 Cl6_A_n54 Cl1-    0.237100    0.160900    0.532387    2.000000 Uiso  1.0000
 Li1a_A_n54 Li+    0.000000    0.334700    0.530000    2.000000 Uiso  1.0000
 Li1b_A_n54 Li+    0.000000    0.665300    0.530000    2.000000 Uiso  1.0000
 Li2a_A_n54 Li+    0.500000    0.169000    0.530000    2.000000 Uiso  0.3650
 Li2b_A_n54 Li+    0.500000    0.831000    0.530000    2.000000 Uiso  0.3650
 Li3_A_n54 Li+    0.500000    0.500000    0.530000    2.000000 Uiso  0.2700
 Sc1_A_n55 Sc3+    0.000000    0.000000    0.540000    2.000000 Uiso  1.0000
 Cl1_A_n55 Cl1-    0.231300    0.000000    0.537579    2.000000 Uiso  1.0000
 Cl2_A_n55 Cl1-   -0.231300    0.000000    0.542421    2.000000 Uiso  1.0000
 Cl3_A_n55 Cl1-   -0.237100   -0.160900    0.537613    2.000000 Uiso  1.0000
 Cl4_A_n55 Cl1-   -0.237100    0.160900    0.537613    2.000000 Uiso  1.0000
 Cl5_A_n55 Cl1-    0.237100   -0.160900    0.542387    2.000000 Uiso  1.0000
 Cl6_A_n55 Cl1-    0.237100    0.160900    0.542387    2.000000 Uiso  1.0000
 Li1a_A_n55 Li+    0.000000    0.334700    0.540000    2.000000 Uiso  1.0000
 Li1b_A_n55 Li+    0.000000    0.665300    0.540000    2.000000 Uiso  1.0000
 Li2a_A_n55 Li+    0.500000    0.169000    0.540000    2.000000 Uiso  0.3650
 Li2b_A_n55 Li+    0.500000    0.831000    0.540000    2.000000 Uiso  0.3650
 Li3_A_n55 Li+    0.500000    0.500000    0.540000    2.000000 Uiso  0.2700
 Sc1_A_n56 Sc3+    0.000000    0.000000    0.550000    2.000000 Uiso  1.0000
 Cl1_A_n56 Cl1-    0.231300    0.000000    0.547579    2.000000 Uiso  1.0000
 Cl2_A_n56 Cl1-   -0.231300    0.000000    0.552421    2.000000 Uiso  1.0000
 Cl3_A_n56 Cl1-   -0.237100   -0.160900    0.547613    2.000000 Uiso  1.0000
 Cl4_A_n56 Cl1-   -0.237100    0.160900    0.547613    2.000000 Uiso  1.0000
 Cl5_A_n56 Cl1-    0.237100   -0.160900    0.552387    2.000000 Uiso  1.0000
 Cl6_A_n56 Cl1-    0.237100    0.160900    0.552387    2.000000 Uiso  1.0000
 Li1a_A_n56 Li+    0.000000    0.334700    0.550000    2.000000 Uiso  1.0000
 Li1b_A_n56 Li+    0.000000    0.665300    0.550000    2.000000 Uiso  1.0000
 Li2a_A_n56 Li+    0.500000    0.169000    0.550000    2.000000 Uiso  0.3650
 Li2b_A_n56 Li+    0.500000    0.831000    0.550000    2.000000 Uiso  0.3650
 Li3_A_n56 Li+    0.500000    0.500000    0.550000    2.000000 Uiso  0.2700
 Sc1_A_n57 Sc3+    0.000000    0.000000    0.560000    2.000000 Uiso  1.0000
 Cl1_A_n57 Cl1-    0.231300    0.000000    0.557579    2.000000 Uiso  1.0000
 Cl2_A_n57 Cl1-   -0.231300    0.000000    0.562421    2.000000 Uiso  1.0000
 Cl3_A_n57 Cl1-   -0.237100   -0.160900    0.557613    2.000000 Uiso  1.0000
 Cl4_A_n57 Cl1-   -0.237100    0.160900    0.557613    2.000000 Uiso  1.0000
 Cl5_A_n57 Cl1-    0.237100   -0.160900    0.562387    2.000000 Uiso  1.0000
 Cl6_A_n57 Cl1-    0.237100    0.160900    0.562387    2.000000 Uiso  1.0000
 Li1a_A_n57 Li+    0.000000    0.334700    0.560000    2.000000 Uiso  1.0000
 Li1b_A_n57 Li+    0.000000    0.665300    0.560000    2.000000 Uiso  1.0000
 Li2a_A_n57 Li+    0.500000    0.169000    0.560000    2.000000 Uiso  0.3650
 Li2b_A_n57 Li+    0.500000    0.831000    0.560000    2.000000 Uiso  0.3650
 Li3_A_n57 Li+    0.500000    0.500000    0.560000    2.000000 Uiso  0.2700
 Sc1_A_n58 Sc3+    0.000000    0.000000    0.570000    2.000000 Uiso  1.0000
 Cl1_A_n58 Cl1-    0.231300    0.000000    0.567579    2.000000 Uiso  1.0000
 Cl2_A_n58 Cl1-   -0.231300    0.000000    0.572421    2.000000 Uiso  1.0000
 Cl3_A_n58 Cl1-   -0.237100   -0.160900    0.567613    2.000000 Uiso  1.0000
 Cl4_A_n58 Cl1-   -0.237100    0.160900    0.567613    2.000000 Uiso  1.0000
 Cl5_A_n58 Cl1-    0.237100   -0.160900    0.572387    2.000000 Uiso  1.0000
 Cl6_A_n58 Cl1-    0.237100    0.160900    0.572387    2.000000 Uiso  1.0000
 Li1a_A_n58 Li+    0.000000    0.334700    0.570000    2.000000 Uiso  1.0000
 Li1b_A_n58 Li+    0.000000    0.665300    0.570000    2.000000 Uiso  1.0000
 Li2a_A_n58 Li+    0.500000    0.169000    0.570000    2.000000 Uiso  0.3650
 Li2b_A_n58 Li+    0.500000    0.831000    0.570000    2.000000 Uiso  0.3650
 Li3_A_n58 Li+    0.500000    0.500000    0.570000    2.000000 Uiso  0.2700
 Sc1_A_n59 Sc3+    0.000000    0.000000    0.580000    2.000000 Uiso  1.0000
 Cl1_A_n59 Cl1-    0.231300    0.000000    0.577579    2.000000 Uiso  1.0000
 Cl2_A_n59 Cl1-   -0.231300    0.000000    0.582421    2.000000 Uiso  1.0000
 Cl3_A_n59 Cl1-   -0.237100   -0.160900    0.577613    2.000000 Uiso  1.0000
 Cl4_A_n59 Cl1-   -0.237100    0.160900    0.577613    2.000000 Uiso  1.0000
 Cl5_A_n59 Cl1-    0.237100   -0.160900    0.582387    2.000000 Uiso  1.0000
 Cl6_A_n59 Cl1-    0.237100    0.160900    0.582387    2.000000 Uiso  1.0000
 Li1a_A_n59 Li+    0.000000    0.334700    0.580000    2.000000 Uiso  1.0000
 Li1b_A_n59 Li+    0.000000    0.665300    0.580000    2.000000 Uiso  1.0000
 Li2a_A_n59 Li+    0.500000    0.169000    0.580000    2.000000 Uiso  0.3650
 Li2b_A_n59 Li+    0.500000    0.831000    0.580000    2.000000 Uiso  0.3650
 Li3_A_n59 Li+    0.500000    0.500000    0.580000    2.000000 Uiso  0.2700
 Sc1_A_n60 Sc3+    0.000000    0.000000    0.590000    2.000000 Uiso  1.0000
 Cl1_A_n60 Cl1-    0.231300    0.000000    0.587579    2.000000 Uiso  1.0000
 Cl2_A_n60 Cl1-   -0.231300    0.000000    0.592421    2.000000 Uiso  1.0000
 Cl3_A_n60 Cl1-   -0.237100   -0.160900    0.587613    2.000000 Uiso  1.0000
 Cl4_A_n60 Cl1-   -0.237100    0.160900    0.587613    2.000000 Uiso  1.0000
 Cl5_A_n60 Cl1-    0.237100   -0.160900    0.592387    2.000000 Uiso  1.0000
 Cl6_A_n60 Cl1-    0.237100    0.160900    0.592387    2.000000 Uiso  1.0000
 Li1a_A_n60 Li+    0.000000    0.334700    0.590000    2.000000 Uiso  1.0000
 Li1b_A_n60 Li+    0.000000    0.665300    0.590000    2.000000 Uiso  1.0000
 Li2a_A_n60 Li+    0.500000    0.169000    0.590000    2.000000 Uiso  0.3650
 Li2b_A_n60 Li+    0.500000    0.831000    0.590000    2.000000 Uiso  0.3650
 Li3_A_n60 Li+    0.500000    0.500000    0.590000    2.000000 Uiso  0.2700
 Sc1_A_n61 Sc3+    0.000000    0.000000    0.600000    2.000000 Uiso  1.0000
 Cl1_A_n61 Cl1-    0.231300    0.000000    0.597579    2.000000 Uiso  1.0000
 Cl2_A_n61 Cl1-   -0.231300    0.000000    0.602421    2.000000 Uiso  1.0000
 Cl3_A_n61 Cl1-   -0.237100   -0.160900    0.597613    2.000000 Uiso  1.0000
 Cl4_A_n61 Cl1-   -0.237100    0.160900    0.597613    2.000000 Uiso  1.0000
 Cl5_A_n61 Cl1-    0.237100   -0.160900    0.602387    2.000000 Uiso  1.0000
 Cl6_A_n61 Cl1-    0.237100    0.160900    0.602387    2.000000 Uiso  1.0000
 Li1a_A_n61 Li+    0.000000    0.334700    0.600000    2.000000 Uiso  1.0000
 Li1b_A_n61 Li+    0.000000    0.665300    0.600000    2.000000 Uiso  1.0000
 Li2a_A_n61 Li+    0.500000    0.169000    0.600000    2.000000 Uiso  0.3650
 Li2b_A_n61 Li+    0.500000    0.831000    0.600000    2.000000 Uiso  0.3650
 Li3_A_n61 Li+    0.500000    0.500000    0.600000    2.000000 Uiso  0.2700
 Sc1_A_n62 Sc3+    0.000000    0.000000    0.610000    2.000000 Uiso  1.0000
 Cl1_A_n62 Cl1-    0.231300    0.000000    0.607579    2.000000 Uiso  1.0000
 Cl2_A_n62 Cl1-   -0.231300    0.000000    0.612421    2.000000 Uiso  1.0000
 Cl3_A_n62 Cl1-   -0.237100   -0.160900    0.607613    2.000000 Uiso  1.0000
 Cl4_A_n62 Cl1-   -0.237100    0.160900    0.607613    2.000000 Uiso  1.0000
 Cl5_A_n62 Cl1-    0.237100   -0.160900    0.612387    2.000000 Uiso  1.0000
 Cl6_A_n62 Cl1-    0.237100    0.160900    0.612387    2.000000 Uiso  1.0000
 Li1a_A_n62 Li+    0.000000    0.334700    0.610000    2.000000 Uiso  1.0000
 Li1b_A_n62 Li+    0.000000    0.665300    0.610000    2.000000 Uiso  1.0000
 Li2a_A_n62 Li+    0.500000    0.169000    0.610000    2.000000 Uiso  0.3650
 Li2b_A_n62 Li+    0.500000    0.831000    0.610000    2.000000 Uiso  0.3650
 Li3_A_n62 Li+    0.500000    0.500000    0.610000    2.000000 Uiso  0.2700
 Sc1_A_n63 Sc3+    0.000000    0.000000    0.620000    2.000000 Uiso  1.0000
 Cl1_A_n63 Cl1-    0.231300    0.000000    0.617579    2.000000 Uiso  1.0000
 Cl2_A_n63 Cl1-   -0.231300    0.000000    0.622421    2.000000 Uiso  1.0000
 Cl3_A_n63 Cl1-   -0.237100   -0.160900    0.617613    2.000000 Uiso  1.0000
 Cl4_A_n63 Cl1-   -0.237100    0.160900    0.617613    2.000000 Uiso  1.0000
 Cl5_A_n63 Cl1-    0.237100   -0.160900    0.622387    2.000000 Uiso  1.0000
 Cl6_A_n63 Cl1-    0.237100    0.160900    0.622387    2.000000 Uiso  1.0000
 Li1a_A_n63 Li+    0.000000    0.334700    0.620000    2.000000 Uiso  1.0000
 Li1b_A_n63 Li+    0.000000    0.665300    0.620000    2.000000 Uiso  1.0000
 Li2a_A_n63 Li+    0.500000    0.169000    0.620000    2.000000 Uiso  0.3650
 Li2b_A_n63 Li+    0.500000    0.831000    0.620000    2.000000 Uiso  0.3650
 Li3_A_n63 Li+    0.500000    0.500000    0.620000    2.000000 Uiso  0.2700
 Sc1_A_n64 Sc3+    0.000000    0.000000    0.630000    2.000000 Uiso  1.0000
 Cl1_A_n64 Cl1-    0.231300    0.000000    0.627579    2.000000 Uiso  1.0000
 Cl2_A_n64 Cl1-   -0.231300    0.000000    0.632421    2.000000 Uiso  1.0000
 Cl3_A_n64 Cl1-   -0.237100   -0.160900    0.627613    2.000000 Uiso  1.0000
 Cl4_A_n64 Cl1-   -0.237100    0.160900    0.627613    2.000000 Uiso  1.0000
 Cl5_A_n64 Cl1-    0.237100   -0.160900    0.632387    2.000000 Uiso  1.0000
 Cl6_A_n64 Cl1-    0.237100    0.160900    0.632387    2.000000 Uiso  1.0000
 Li1a_A_n64 Li+    0.000000    0.334700    0.630000    2.000000 Uiso  1.0000
 Li1b_A_n64 Li+    0.000000    0.665300    0.630000    2.000000 Uiso  1.0000
 Li2a_A_n64 Li+    0.500000    0.169000    0.630000    2.000000 Uiso  0.3650
 Li2b_A_n64 Li+    0.500000    0.831000    0.630000    2.000000 Uiso  0.3650
 Li3_A_n64 Li+    0.500000    0.500000    0.630000    2.000000 Uiso  0.2700
 Sc1_A_n65 Sc3+    0.000000    0.000000    0.640000    2.000000 Uiso  1.0000
 Cl1_A_n65 Cl1-    0.231300    0.000000    0.637579    2.000000 Uiso  1.0000
 Cl2_A_n65 Cl1-   -0.231300    0.000000    0.642421    2.000000 Uiso  1.0000
 Cl3_A_n65 Cl1-   -0.237100   -0.160900    0.637613    2.000000 Uiso  1.0000
 Cl4_A_n65 Cl1-   -0.237100    0.160900    0.637613    2.000000 Uiso  1.0000
 Cl5_A_n65 Cl1-    0.237100   -0.160900    0.642387    2.000000 Uiso  1.0000
 Cl6_A_n65 Cl1-    0.237100    0.160900    0.642387    2.000000 Uiso  1.0000
 Li1a_A_n65 Li+    0.000000    0.334700    0.640000    2.000000 Uiso  1.0000
 Li1b_A_n65 Li+    0.000000    0.665300    0.640000    2.000000 Uiso  1.0000
 Li2a_A_n65 Li+    0.500000    0.169000    0.640000    2.000000 Uiso  0.3650
 Li2b_A_n65 Li+    0.500000    0.831000    0.640000    2.000000 Uiso  0.3650
 Li3_A_n65 Li+    0.500000    0.500000    0.640000    2.000000 Uiso  0.2700
 Sc1_A_n66 Sc3+    0.000000    0.000000    0.650000    2.000000 Uiso  1.0000
 Cl1_A_n66 Cl1-    0.231300    0.000000    0.647579    2.000000 Uiso  1.0000
 Cl2_A_n66 Cl1-   -0.231300    0.000000    0.652421    2.000000 Uiso  1.0000
 Cl3_A_n66 Cl1-   -0.237100   -0.160900    0.647613    2.000000 Uiso  1.0000
 Cl4_A_n66 Cl1-   -0.237100    0.160900    0.647613    2.000000 Uiso  1.0000
 Cl5_A_n66 Cl1-    0.237100   -0.160900    0.652387    2.000000 Uiso  1.0000
 Cl6_A_n66 Cl1-    0.237100    0.160900    0.652387    2.000000 Uiso  1.0000
 Li1a_A_n66 Li+    0.000000    0.334700    0.650000    2.000000 Uiso  1.0000
 Li1b_A_n66 Li+    0.000000    0.665300    0.650000    2.000000 Uiso  1.0000
 Li2a_A_n66 Li+    0.500000    0.169000    0.650000    2.000000 Uiso  0.3650
 Li2b_A_n66 Li+    0.500000    0.831000    0.650000    2.000000 Uiso  0.3650
 Li3_A_n66 Li+    0.500000    0.500000    0.650000    2.000000 Uiso  0.2700
 Sc1_A_n67 Sc3+    0.000000    0.000000    0.660000    2.000000 Uiso  1.0000
 Cl1_A_n67 Cl1-    0.231300    0.000000    0.657579    2.000000 Uiso  1.0000
 Cl2_A_n67 Cl1-   -0.231300    0.000000    0.662421    2.000000 Uiso  1.0000
 Cl3_A_n67 Cl1-   -0.237100   -0.160900    0.657613    2.000000 Uiso  1.0000
 Cl4_A_n67 Cl1-   -0.237100    0.160900    0.657613    2.000000 Uiso  1.0000
 Cl5_A_n67 Cl1-    0.237100   -0.160900    0.662387    2.000000 Uiso  1.0000
 Cl6_A_n67 Cl1-    0.237100    0.160900    0.662387    2.000000 Uiso  1.0000
 Li1a_A_n67 Li+    0.000000    0.334700    0.660000    2.000000 Uiso  1.0000
 Li1b_A_n67 Li+    0.000000    0.665300    0.660000    2.000000 Uiso  1.0000
 Li2a_A_n67 Li+    0.500000    0.169000    0.660000    2.000000 Uiso  0.3650
 Li2b_A_n67 Li+    0.500000    0.831000    0.660000    2.000000 Uiso  0.3650
 Li3_A_n67 Li+    0.500000    0.500000    0.660000    2.000000 Uiso  0.2700
 Sc1_A_n68 Sc3+    0.000000    0.000000    0.670000    2.000000 Uiso  1.0000
 Cl1_A_n68 Cl1-    0.231300    0.000000    0.667579    2.000000 Uiso  1.0000
 Cl2_A_n68 Cl1-   -0.231300    0.000000    0.672421    2.000000 Uiso  1.0000
 Cl3_A_n68 Cl1-   -0.237100   -0.160900    0.667613    2.000000 Uiso  1.0000
 Cl4_A_n68 Cl1-   -0.237100    0.160900    0.667613    2.000000 Uiso  1.0000
 Cl5_A_n68 Cl1-    0.237100   -0.160900    0.672387    2.000000 Uiso  1.0000
 Cl6_A_n68 Cl1-    0.237100    0.160900    0.672387    2.000000 Uiso  1.0000
 Li1a_A_n68 Li+    0.000000    0.334700    0.670000    2.000000 Uiso  1.0000
 Li1b_A_n68 Li+    0.000000    0.665300    0.670000    2.000000 Uiso  1.0000
 Li2a_A_n68 Li+    0.500000    0.169000    0.670000    2.000000 Uiso  0.3650
 Li2b_A_n68 Li+    0.500000    0.831000    0.670000    2.000000 Uiso  0.3650
 Li3_A_n68 Li+    0.500000    0.500000    0.670000    2.000000 Uiso  0.2700
 Sc1_A_n69 Sc3+    0.000000    0.000000    0.680000    2.000000 Uiso  1.0000
 Cl1_A_n69 Cl1-    0.231300    0.000000    0.677579    2.000000 Uiso  1.0000
 Cl2_A_n69 Cl1-   -0.231300    0.000000    0.682421    2.000000 Uiso  1.0000
 Cl3_A_n69 Cl1-   -0.237100   -0.160900    0.677613    2.000000 Uiso  1.0000
 Cl4_A_n69 Cl1-   -0.237100    0.160900    0.677613    2.000000 Uiso  1.0000
 Cl5_A_n69 Cl1-    0.237100   -0.160900    0.682387    2.000000 Uiso  1.0000
 Cl6_A_n69 Cl1-    0.237100    0.160900    0.682387    2.000000 Uiso  1.0000
 Li1a_A_n69 Li+    0.000000    0.334700    0.680000    2.000000 Uiso  1.0000
 Li1b_A_n69 Li+    0.000000    0.665300    0.680000    2.000000 Uiso  1.0000
 Li2a_A_n69 Li+    0.500000    0.169000    0.680000    2.000000 Uiso  0.3650
 Li2b_A_n69 Li+    0.500000    0.831000    0.680000    2.000000 Uiso  0.3650
 Li3_A_n69 Li+    0.500000    0.500000    0.680000    2.000000 Uiso  0.2700
 Sc1_A_n70 Sc3+    0.000000    0.000000    0.690000    2.000000 Uiso  1.0000
 Cl1_A_n70 Cl1-    0.231300    0.000000    0.687579    2.000000 Uiso  1.0000
 Cl2_A_n70 Cl1-   -0.231300    0.000000    0.692421    2.000000 Uiso  1.0000
 Cl3_A_n70 Cl1-   -0.237100   -0.160900    0.687613    2.000000 Uiso  1.0000
 Cl4_A_n70 Cl1-   -0.237100    0.160900    0.687613    2.000000 Uiso  1.0000
 Cl5_A_n70 Cl1-    0.237100   -0.160900    0.692387    2.000000 Uiso  1.0000
 Cl6_A_n70 Cl1-    0.237100    0.160900    0.692387    2.000000 Uiso  1.0000
 Li1a_A_n70 Li+    0.000000    0.334700    0.690000    2.000000 Uiso  1.0000
 Li1b_A_n70 Li+    0.000000    0.665300    0.690000    2.000000 Uiso  1.0000
 Li2a_A_n70 Li+    0.500000    0.169000    0.690000    2.000000 Uiso  0.3650
 Li2b_A_n70 Li+    0.500000    0.831000    0.690000    2.000000 Uiso  0.3650
 Li3_A_n70 Li+    0.500000    0.500000    0.690000    2.000000 Uiso  0.2700
 Sc1_A_n71 Sc3+    0.000000    0.000000    0.700000    2.000000 Uiso  1.0000
 Cl1_A_n71 Cl1-    0.231300    0.000000    0.697579    2.000000 Uiso  1.0000
 Cl2_A_n71 Cl1-   -0.231300    0.000000    0.702421    2.000000 Uiso  1.0000
 Cl3_A_n71 Cl1-   -0.237100   -0.160900    0.697613    2.000000 Uiso  1.0000
 Cl4_A_n71 Cl1-   -0.237100    0.160900    0.697613    2.000000 Uiso  1.0000
 Cl5_A_n71 Cl1-    0.237100   -0.160900    0.702387    2.000000 Uiso  1.0000
 Cl6_A_n71 Cl1-    0.237100    0.160900    0.702387    2.000000 Uiso  1.0000
 Li1a_A_n71 Li+    0.000000    0.334700    0.700000    2.000000 Uiso  1.0000
 Li1b_A_n71 Li+    0.000000    0.665300    0.700000    2.000000 Uiso  1.0000
 Li2a_A_n71 Li+    0.500000    0.169000    0.700000    2.000000 Uiso  0.3650
 Li2b_A_n71 Li+    0.500000    0.831000    0.700000    2.000000 Uiso  0.3650
 Li3_A_n71 Li+    0.500000    0.500000    0.700000    2.000000 Uiso  0.2700
 Sc1_A_n72 Sc3+    0.000000    0.000000    0.710000    2.000000 Uiso  1.0000
 Cl1_A_n72 Cl1-    0.231300    0.000000    0.707579    2.000000 Uiso  1.0000
 Cl2_A_n72 Cl1-   -0.231300    0.000000    0.712421    2.000000 Uiso  1.0000
 Cl3_A_n72 Cl1-   -0.237100   -0.160900    0.707613    2.000000 Uiso  1.0000
 Cl4_A_n72 Cl1-   -0.237100    0.160900    0.707613    2.000000 Uiso  1.0000
 Cl5_A_n72 Cl1-    0.237100   -0.160900    0.712387    2.000000 Uiso  1.0000
 Cl6_A_n72 Cl1-    0.237100    0.160900    0.712387    2.000000 Uiso  1.0000
 Li1a_A_n72 Li+    0.000000    0.334700    0.710000    2.000000 Uiso  1.0000
 Li1b_A_n72 Li+    0.000000    0.665300    0.710000    2.000000 Uiso  1.0000
 Li2a_A_n72 Li+    0.500000    0.169000    0.710000    2.000000 Uiso  0.3650
 Li2b_A_n72 Li+    0.500000    0.831000    0.710000    2.000000 Uiso  0.3650
 Li3_A_n72 Li+    0.500000    0.500000    0.710000    2.000000 Uiso  0.2700
 Sc1_A_n73 Sc3+    0.000000    0.000000    0.720000    2.000000 Uiso  1.0000
 Cl1_A_n73 Cl1-    0.231300    0.000000    0.717579    2.000000 Uiso  1.0000
 Cl2_A_n73 Cl1-   -0.231300    0.000000    0.722421    2.000000 Uiso  1.0000
 Cl3_A_n73 Cl1-   -0.237100   -0.160900    0.717613    2.000000 Uiso  1.0000
 Cl4_A_n73 Cl1-   -0.237100    0.160900    0.717613    2.000000 Uiso  1.0000
 Cl5_A_n73 Cl1-    0.237100   -0.160900    0.722387    2.000000 Uiso  1.0000
 Cl6_A_n73 Cl1-    0.237100    0.160900    0.722387    2.000000 Uiso  1.0000
 Li1a_A_n73 Li+    0.000000    0.334700    0.720000    2.000000 Uiso  1.0000
 Li1b_A_n73 Li+    0.000000    0.665300    0.720000    2.000000 Uiso  1.0000
 Li2a_A_n73 Li+    0.500000    0.169000    0.720000    2.000000 Uiso  0.3650
 Li2b_A_n73 Li+    0.500000    0.831000    0.720000    2.000000 Uiso  0.3650
 Li3_A_n73 Li+    0.500000    0.500000    0.720000    2.000000 Uiso  0.2700
 Sc1_A_n74 Sc3+    0.000000    0.000000    0.730000    2.000000 Uiso  1.0000
 Cl1_A_n74 Cl1-    0.231300    0.000000    0.727579    2.000000 Uiso  1.0000
 Cl2_A_n74 Cl1-   -0.231300    0.000000    0.732421    2.000000 Uiso  1.0000
 Cl3_A_n74 Cl1-   -0.237100   -0.160900    0.727613    2.000000 Uiso  1.0000
 Cl4_A_n74 Cl1-   -0.237100    0.160900    0.727613    2.000000 Uiso  1.0000
 Cl5_A_n74 Cl1-    0.237100   -0.160900    0.732387    2.000000 Uiso  1.0000
 Cl6_A_n74 Cl1-    0.237100    0.160900    0.732387    2.000000 Uiso  1.0000
 Li1a_A_n74 Li+    0.000000    0.334700    0.730000    2.000000 Uiso  1.0000
 Li1b_A_n74 Li+    0.000000    0.665300    0.730000    2.000000 Uiso  1.0000
 Li2a_A_n74 Li+    0.500000    0.169000    0.730000    2.000000 Uiso  0.3650
 Li2b_A_n74 Li+    0.500000    0.831000    0.730000    2.000000 Uiso  0.3650
 Li3_A_n74 Li+    0.500000    0.500000    0.730000    2.000000 Uiso  0.2700
 Sc1_A_n75 Sc3+    0.000000    0.000000    0.740000    2.000000 Uiso  1.0000
 Cl1_A_n75 Cl1-    0.231300    0.000000    0.737579    2.000000 Uiso  1.0000
 Cl2_A_n75 Cl1-   -0.231300    0.000000    0.742421    2.000000 Uiso  1.0000
 Cl3_A_n75 Cl1-   -0.237100   -0.160900    0.737613    2.000000 Uiso  1.0000
 Cl4_A_n75 Cl1-   -0.237100    0.160900    0.737613    2.000000 Uiso  1.0000
 Cl5_A_n75 Cl1-    0.237100   -0.160900    0.742387    2.000000 Uiso  1.0000
 Cl6_A_n75 Cl1-    0.237100    0.160900    0.742387    2.000000 Uiso  1.0000
 Li1a_A_n75 Li+    0.000000    0.334700    0.740000    2.000000 Uiso  1.0000
 Li1b_A_n75 Li+    0.000000    0.665300    0.740000    2.000000 Uiso  1.0000
 Li2a_A_n75 Li+    0.500000    0.169000    0.740000    2.000000 Uiso  0.3650
 Li2b_A_n75 Li+    0.500000    0.831000    0.740000    2.000000 Uiso  0.3650
 Li3_A_n75 Li+    0.500000    0.500000    0.740000    2.000000 Uiso  0.2700
 Sc1_A_n76 Sc3+    0.000000    0.000000    0.750000    2.000000 Uiso  1.0000
 Cl1_A_n76 Cl1-    0.231300    0.000000    0.747579    2.000000 Uiso  1.0000
 Cl2_A_n76 Cl1-   -0.231300    0.000000    0.752421    2.000000 Uiso  1.0000
 Cl3_A_n76 Cl1-   -0.237100   -0.160900    0.747613    2.000000 Uiso  1.0000
 Cl4_A_n76 Cl1-   -0.237100    0.160900    0.747613    2.000000 Uiso  1.0000
 Cl5_A_n76 Cl1-    0.237100   -0.160900    0.752387    2.000000 Uiso  1.0000
 Cl6_A_n76 Cl1-    0.237100    0.160900    0.752387    2.000000 Uiso  1.0000
 Li1a_A_n76 Li+    0.000000    0.334700    0.750000    2.000000 Uiso  1.0000
 Li1b_A_n76 Li+    0.000000    0.665300    0.750000    2.000000 Uiso  1.0000
 Li2a_A_n76 Li+    0.500000    0.169000    0.750000    2.000000 Uiso  0.3650
 Li2b_A_n76 Li+    0.500000    0.831000    0.750000    2.000000 Uiso  0.3650
 Li3_A_n76 Li+    0.500000    0.500000    0.750000    2.000000 Uiso  0.2700
 Sc1_A_n77 Sc3+    0.000000    0.000000    0.760000    2.000000 Uiso  1.0000
 Cl1_A_n77 Cl1-    0.231300    0.000000    0.757579    2.000000 Uiso  1.0000
 Cl2_A_n77 Cl1-   -0.231300    0.000000    0.762421    2.000000 Uiso  1.0000
 Cl3_A_n77 Cl1-   -0.237100   -0.160900    0.757613    2.000000 Uiso  1.0000
 Cl4_A_n77 Cl1-   -0.237100    0.160900    0.757613    2.000000 Uiso  1.0000
 Cl5_A_n77 Cl1-    0.237100   -0.160900    0.762387    2.000000 Uiso  1.0000
 Cl6_A_n77 Cl1-    0.237100    0.160900    0.762387    2.000000 Uiso  1.0000
 Li1a_A_n77 Li+    0.000000    0.334700    0.760000    2.000000 Uiso  1.0000
 Li1b_A_n77 Li+    0.000000    0.665300    0.760000    2.000000 Uiso  1.0000
 Li2a_A_n77 Li+    0.500000    0.169000    0.760000    2.000000 Uiso  0.3650
 Li2b_A_n77 Li+    0.500000    0.831000    0.760000    2.000000 Uiso  0.3650
 Li3_A_n77 Li+    0.500000    0.500000    0.760000    2.000000 Uiso  0.2700
 Sc1_A_n78 Sc3+    0.000000    0.000000    0.770000    2.000000 Uiso  1.0000
 Cl1_A_n78 Cl1-    0.231300    0.000000    0.767579    2.000000 Uiso  1.0000
 Cl2_A_n78 Cl1-   -0.231300    0.000000    0.772421    2.000000 Uiso  1.0000
 Cl3_A_n78 Cl1-   -0.237100   -0.160900    0.767613    2.000000 Uiso  1.0000
 Cl4_A_n78 Cl1-   -0.237100    0.160900    0.767613    2.000000 Uiso  1.0000
 Cl5_A_n78 Cl1-    0.237100   -0.160900    0.772387    2.000000 Uiso  1.0000
 Cl6_A_n78 Cl1-    0.237100    0.160900    0.772387    2.000000 Uiso  1.0000
 Li1a_A_n78 Li+    0.000000    0.334700    0.770000    2.000000 Uiso  1.0000
 Li1b_A_n78 Li+    0.000000    0.665300    0.770000    2.000000 Uiso  1.0000
 Li2a_A_n78 Li+    0.500000    0.169000    0.770000    2.000000 Uiso  0.3650
 Li2b_A_n78 Li+    0.500000    0.831000    0.770000    2.000000 Uiso  0.3650
 Li3_A_n78 Li+    0.500000    0.500000    0.770000    2.000000 Uiso  0.2700
 Sc1_A_n79 Sc3+    0.000000    0.000000    0.780000    2.000000 Uiso  1.0000
 Cl1_A_n79 Cl1-    0.231300    0.000000    0.777579    2.000000 Uiso  1.0000
 Cl2_A_n79 Cl1-   -0.231300    0.000000    0.782421    2.000000 Uiso  1.0000
 Cl3_A_n79 Cl1-   -0.237100   -0.160900    0.777613    2.000000 Uiso  1.0000
 Cl4_A_n79 Cl1-   -0.237100    0.160900    0.777613    2.000000 Uiso  1.0000
 Cl5_A_n79 Cl1-    0.237100   -0.160900    0.782387    2.000000 Uiso  1.0000
 Cl6_A_n79 Cl1-    0.237100    0.160900    0.782387    2.000000 Uiso  1.0000
 Li1a_A_n79 Li+    0.000000    0.334700    0.780000    2.000000 Uiso  1.0000
 Li1b_A_n79 Li+    0.000000    0.665300    0.780000    2.000000 Uiso  1.0000
 Li2a_A_n79 Li+    0.500000    0.169000    0.780000    2.000000 Uiso  0.3650
 Li2b_A_n79 Li+    0.500000    0.831000    0.780000    2.000000 Uiso  0.3650
 Li3_A_n79 Li+    0.500000    0.500000    0.780000    2.000000 Uiso  0.2700
 Sc1_A_n80 Sc3+    0.000000    0.000000    0.790000    2.000000 Uiso  1.0000
 Cl1_A_n80 Cl1-    0.231300    0.000000    0.787579    2.000000 Uiso  1.0000
 Cl2_A_n80 Cl1-   -0.231300    0.000000    0.792421    2.000000 Uiso  1.0000
 Cl3_A_n80 Cl1-   -0.237100   -0.160900    0.787613    2.000000 Uiso  1.0000
 Cl4_A_n80 Cl1-   -0.237100    0.160900    0.787613    2.000000 Uiso  1.0000
 Cl5_A_n80 Cl1-    0.237100   -0.160900    0.792387    2.000000 Uiso  1.0000
 Cl6_A_n80 Cl1-    0.237100    0.160900    0.792387    2.000000 Uiso  1.0000
 Li1a_A_n80 Li+    0.000000    0.334700    0.790000    2.000000 Uiso  1.0000
 Li1b_A_n80 Li+    0.000000    0.665300    0.790000    2.000000 Uiso  1.0000
 Li2a_A_n80 Li+    0.500000    0.169000    0.790000    2.000000 Uiso  0.3650
 Li2b_A_n80 Li+    0.500000    0.831000    0.790000    2.000000 Uiso  0.3650
 Li3_A_n80 Li+    0.500000    0.500000    0.790000    2.000000 Uiso  0.2700
 Sc1_A_n81 Sc3+    0.000000    0.000000    0.800000    2.000000 Uiso  1.0000
 Cl1_A_n81 Cl1-    0.231300    0.000000    0.797579    2.000000 Uiso  1.0000
 Cl2_A_n81 Cl1-   -0.231300    0.000000    0.802421    2.000000 Uiso  1.0000
 Cl3_A_n81 Cl1-   -0.237100   -0.160900    0.797613    2.000000 Uiso  1.0000
 Cl4_A_n81 Cl1-   -0.237100    0.160900    0.797613    2.000000 Uiso  1.0000
 Cl5_A_n81 Cl1-    0.237100   -0.160900    0.802387    2.000000 Uiso  1.0000
 Cl6_A_n81 Cl1-    0.237100    0.160900    0.802387    2.000000 Uiso  1.0000
 Li1a_A_n81 Li+    0.000000    0.334700    0.800000    2.000000 Uiso  1.0000
 Li1b_A_n81 Li+    0.000000    0.665300    0.800000    2.000000 Uiso  1.0000
 Li2a_A_n81 Li+    0.500000    0.169000    0.800000    2.000000 Uiso  0.3650
 Li2b_A_n81 Li+    0.500000    0.831000    0.800000    2.000000 Uiso  0.3650
 Li3_A_n81 Li+    0.500000    0.500000    0.800000    2.000000 Uiso  0.2700
 Sc1_A_n82 Sc3+    0.000000    0.000000    0.810000    2.000000 Uiso  1.0000
 Cl1_A_n82 Cl1-    0.231300    0.000000    0.807579    2.000000 Uiso  1.0000
 Cl2_A_n82 Cl1-   -0.231300    0.000000    0.812421    2.000000 Uiso  1.0000
 Cl3_A_n82 Cl1-   -0.237100   -0.160900    0.807613    2.000000 Uiso  1.0000
 Cl4_A_n82 Cl1-   -0.237100    0.160900    0.807613    2.000000 Uiso  1.0000
 Cl5_A_n82 Cl1-    0.237100   -0.160900    0.812387    2.000000 Uiso  1.0000
 Cl6_A_n82 Cl1-    0.237100    0.160900    0.812387    2.000000 Uiso  1.0000
 Li1a_A_n82 Li+    0.000000    0.334700    0.810000    2.000000 Uiso  1.0000
 Li1b_A_n82 Li+    0.000000    0.665300    0.810000    2.000000 Uiso  1.0000
 Li2a_A_n82 Li+    0.500000    0.169000    0.810000    2.000000 Uiso  0.3650
 Li2b_A_n82 Li+    0.500000    0.831000    0.810000    2.000000 Uiso  0.3650
 Li3_A_n82 Li+    0.500000    0.500000    0.810000    2.000000 Uiso  0.2700
 Sc1_A_n83 Sc3+    0.000000    0.000000    0.820000    2.000000 Uiso  1.0000
 Cl1_A_n83 Cl1-    0.231300    0.000000    0.817579    2.000000 Uiso  1.0000
 Cl2_A_n83 Cl1-   -0.231300    0.000000    0.822421    2.000000 Uiso  1.0000
 Cl3_A_n83 Cl1-   -0.237100   -0.160900    0.817613    2.000000 Uiso  1.0000
 Cl4_A_n83 Cl1-   -0.237100    0.160900    0.817613    2.000000 Uiso  1.0000
 Cl5_A_n83 Cl1-    0.237100   -0.160900    0.822387    2.000000 Uiso  1.0000
 Cl6_A_n83 Cl1-    0.237100    0.160900    0.822387    2.000000 Uiso  1.0000
 Li1a_A_n83 Li+    0.000000    0.334700    0.820000    2.000000 Uiso  1.0000
 Li1b_A_n83 Li+    0.000000    0.665300    0.820000    2.000000 Uiso  1.0000
 Li2a_A_n83 Li+    0.500000    0.169000    0.820000    2.000000 Uiso  0.3650
 Li2b_A_n83 Li+    0.500000    0.831000    0.820000    2.000000 Uiso  0.3650
 Li3_A_n83 Li+    0.500000    0.500000    0.820000    2.000000 Uiso  0.2700
 Sc1_A_n84 Sc3+    0.000000    0.000000    0.830000    2.000000 Uiso  1.0000
 Cl1_A_n84 Cl1-    0.231300    0.000000    0.827579    2.000000 Uiso  1.0000
 Cl2_A_n84 Cl1-   -0.231300    0.000000    0.832421    2.000000 Uiso  1.0000
 Cl3_A_n84 Cl1-   -0.237100   -0.160900    0.827613    2.000000 Uiso  1.0000
 Cl4_A_n84 Cl1-   -0.237100    0.160900    0.827613    2.000000 Uiso  1.0000
 Cl5_A_n84 Cl1-    0.237100   -0.160900    0.832387    2.000000 Uiso  1.0000
 Cl6_A_n84 Cl1-    0.237100    0.160900    0.832387    2.000000 Uiso  1.0000
 Li1a_A_n84 Li+    0.000000    0.334700    0.830000    2.000000 Uiso  1.0000
 Li1b_A_n84 Li+    0.000000    0.665300    0.830000    2.000000 Uiso  1.0000
 Li2a_A_n84 Li+    0.500000    0.169000    0.830000    2.000000 Uiso  0.3650
 Li2b_A_n84 Li+    0.500000    0.831000    0.830000    2.000000 Uiso  0.3650
 Li3_A_n84 Li+    0.500000    0.500000    0.830000    2.000000 Uiso  0.2700
 Sc1_A_n85 Sc3+    0.000000    0.000000    0.840000    2.000000 Uiso  1.0000
 Cl1_A_n85 Cl1-    0.231300    0.000000    0.837579    2.000000 Uiso  1.0000
 Cl2_A_n85 Cl1-   -0.231300    0.000000    0.842421    2.000000 Uiso  1.0000
 Cl3_A_n85 Cl1-   -0.237100   -0.160900    0.837613    2.000000 Uiso  1.0000
 Cl4_A_n85 Cl1-   -0.237100    0.160900    0.837613    2.000000 Uiso  1.0000
 Cl5_A_n85 Cl1-    0.237100   -0.160900    0.842387    2.000000 Uiso  1.0000
 Cl6_A_n85 Cl1-    0.237100    0.160900    0.842387    2.000000 Uiso  1.0000
 Li1a_A_n85 Li+    0.000000    0.334700    0.840000    2.000000 Uiso  1.0000
 Li1b_A_n85 Li+    0.000000    0.665300    0.840000    2.000000 Uiso  1.0000
 Li2a_A_n85 Li+    0.500000    0.169000    0.840000    2.000000 Uiso  0.3650
 Li2b_A_n85 Li+    0.500000    0.831000    0.840000    2.000000 Uiso  0.3650
 Li3_A_n85 Li+    0.500000    0.500000    0.840000    2.000000 Uiso  0.2700
 Sc1_A_n86 Sc3+    0.000000    0.000000    0.850000    2.000000 Uiso  1.0000
 Cl1_A_n86 Cl1-    0.231300    0.000000    0.847579    2.000000 Uiso  1.0000
 Cl2_A_n86 Cl1-   -0.231300    0.000000    0.852421    2.000000 Uiso  1.0000
 Cl3_A_n86 Cl1-   -0.237100   -0.160900    0.847613    2.000000 Uiso  1.0000
 Cl4_A_n86 Cl1-   -0.237100    0.160900    0.847613    2.000000 Uiso  1.0000
 Cl5_A_n86 Cl1-    0.237100   -0.160900    0.852387    2.000000 Uiso  1.0000
 Cl6_A_n86 Cl1-    0.237100    0.160900    0.852387    2.000000 Uiso  1.0000
 Li1a_A_n86 Li+    0.000000    0.334700    0.850000    2.000000 Uiso  1.0000
 Li1b_A_n86 Li+    0.000000    0.665300    0.850000    2.000000 Uiso  1.0000
 Li2a_A_n86 Li+    0.500000    0.169000    0.850000    2.000000 Uiso  0.3650
 Li2b_A_n86 Li+    0.500000    0.831000    0.850000    2.000000 Uiso  0.3650
 Li3_A_n86 Li+    0.500000    0.500000    0.850000    2.000000 Uiso  0.2700
 Sc1_A_n87 Sc3+    0.000000    0.000000    0.860000    2.000000 Uiso  1.0000
 Cl1_A_n87 Cl1-    0.231300    0.000000    0.857579    2.000000 Uiso  1.0000
 Cl2_A_n87 Cl1-   -0.231300    0.000000    0.862421    2.000000 Uiso  1.0000
 Cl3_A_n87 Cl1-   -0.237100   -0.160900    0.857613    2.000000 Uiso  1.0000
 Cl4_A_n87 Cl1-   -0.237100    0.160900    0.857613    2.000000 Uiso  1.0000
 Cl5_A_n87 Cl1-    0.237100   -0.160900    0.862387    2.000000 Uiso  1.0000
 Cl6_A_n87 Cl1-    0.237100    0.160900    0.862387    2.000000 Uiso  1.0000
 Li1a_A_n87 Li+    0.000000    0.334700    0.860000    2.000000 Uiso  1.0000
 Li1b_A_n87 Li+    0.000000    0.665300    0.860000    2.000000 Uiso  1.0000
 Li2a_A_n87 Li+    0.500000    0.169000    0.860000    2.000000 Uiso  0.3650
 Li2b_A_n87 Li+    0.500000    0.831000    0.860000    2.000000 Uiso  0.3650
 Li3_A_n87 Li+    0.500000    0.500000    0.860000    2.000000 Uiso  0.2700
 Sc1_A_n88 Sc3+    0.000000    0.000000    0.870000    2.000000 Uiso  1.0000
 Cl1_A_n88 Cl1-    0.231300    0.000000    0.867579    2.000000 Uiso  1.0000
 Cl2_A_n88 Cl1-   -0.231300    0.000000    0.872421    2.000000 Uiso  1.0000
 Cl3_A_n88 Cl1-   -0.237100   -0.160900    0.867613    2.000000 Uiso  1.0000
 Cl4_A_n88 Cl1-   -0.237100    0.160900    0.867613    2.000000 Uiso  1.0000
 Cl5_A_n88 Cl1-    0.237100   -0.160900    0.872387    2.000000 Uiso  1.0000
 Cl6_A_n88 Cl1-    0.237100    0.160900    0.872387    2.000000 Uiso  1.0000
 Li1a_A_n88 Li+    0.000000    0.334700    0.870000    2.000000 Uiso  1.0000
 Li1b_A_n88 Li+    0.000000    0.665300    0.870000    2.000000 Uiso  1.0000
 Li2a_A_n88 Li+    0.500000    0.169000    0.870000    2.000000 Uiso  0.3650
 Li2b_A_n88 Li+    0.500000    0.831000    0.870000    2.000000 Uiso  0.3650
 Li3_A_n88 Li+    0.500000    0.500000    0.870000    2.000000 Uiso  0.2700
 Sc1_A_n89 Sc3+    0.000000    0.000000    0.880000    2.000000 Uiso  1.0000
 Cl1_A_n89 Cl1-    0.231300    0.000000    0.877579    2.000000 Uiso  1.0000
 Cl2_A_n89 Cl1-   -0.231300    0.000000    0.882421    2.000000 Uiso  1.0000
 Cl3_A_n89 Cl1-   -0.237100   -0.160900    0.877613    2.000000 Uiso  1.0000
 Cl4_A_n89 Cl1-   -0.237100    0.160900    0.877613    2.000000 Uiso  1.0000
 Cl5_A_n89 Cl1-    0.237100   -0.160900    0.882387    2.000000 Uiso  1.0000
 Cl6_A_n89 Cl1-    0.237100    0.160900    0.882387    2.000000 Uiso  1.0000
 Li1a_A_n89 Li+    0.000000    0.334700    0.880000    2.000000 Uiso  1.0000
 Li1b_A_n89 Li+    0.000000    0.665300    0.880000    2.000000 Uiso  1.0000
 Li2a_A_n89 Li+    0.500000    0.169000    0.880000    2.000000 Uiso  0.3650
 Li2b_A_n89 Li+    0.500000    0.831000    0.880000    2.000000 Uiso  0.3650
 Li3_A_n89 Li+    0.500000    0.500000    0.880000    2.000000 Uiso  0.2700
 Sc1_A_n90 Sc3+    0.000000    0.000000    0.890000    2.000000 Uiso  1.0000
 Cl1_A_n90 Cl1-    0.231300    0.000000    0.887579    2.000000 Uiso  1.0000
 Cl2_A_n90 Cl1-   -0.231300    0.000000    0.892421    2.000000 Uiso  1.0000
 Cl3_A_n90 Cl1-   -0.237100   -0.160900    0.887613    2.000000 Uiso  1.0000
 Cl4_A_n90 Cl1-   -0.237100    0.160900    0.887613    2.000000 Uiso  1.0000
 Cl5_A_n90 Cl1-    0.237100   -0.160900    0.892387    2.000000 Uiso  1.0000
 Cl6_A_n90 Cl1-    0.237100    0.160900    0.892387    2.000000 Uiso  1.0000
 Li1a_A_n90 Li+    0.000000    0.334700    0.890000    2.000000 Uiso  1.0000
 Li1b_A_n90 Li+    0.000000    0.665300    0.890000    2.000000 Uiso  1.0000
 Li2a_A_n90 Li+    0.500000    0.169000    0.890000    2.000000 Uiso  0.3650
 Li2b_A_n90 Li+    0.500000    0.831000    0.890000    2.000000 Uiso  0.3650
 Li3_A_n90 Li+    0.500000    0.500000    0.890000    2.000000 Uiso  0.2700
 Sc1_A_n91 Sc3+    0.000000    0.000000    0.900000    2.000000 Uiso  1.0000
 Cl1_A_n91 Cl1-    0.231300    0.000000    0.897579    2.000000 Uiso  1.0000
 Cl2_A_n91 Cl1-   -0.231300    0.000000    0.902421    2.000000 Uiso  1.0000
 Cl3_A_n91 Cl1-   -0.237100   -0.160900    0.897613    2.000000 Uiso  1.0000
 Cl4_A_n91 Cl1-   -0.237100    0.160900    0.897613    2.000000 Uiso  1.0000
 Cl5_A_n91 Cl1-    0.237100   -0.160900    0.902387    2.000000 Uiso  1.0000
 Cl6_A_n91 Cl1-    0.237100    0.160900    0.902387    2.000000 Uiso  1.0000
 Li1a_A_n91 Li+    0.000000    0.334700    0.900000    2.000000 Uiso  1.0000
 Li1b_A_n91 Li+    0.000000    0.665300    0.900000    2.000000 Uiso  1.0000
 Li2a_A_n91 Li+    0.500000    0.169000    0.900000    2.000000 Uiso  0.3650
 Li2b_A_n91 Li+    0.500000    0.831000    0.900000    2.000000 Uiso  0.3650
 Li3_A_n91 Li+    0.500000    0.500000    0.900000    2.000000 Uiso  0.2700
 Sc1_A_n92 Sc3+    0.000000    0.000000    0.910000    2.000000 Uiso  1.0000
 Cl1_A_n92 Cl1-    0.231300    0.000000    0.907579    2.000000 Uiso  1.0000
 Cl2_A_n92 Cl1-   -0.231300    0.000000    0.912421    2.000000 Uiso  1.0000
 Cl3_A_n92 Cl1-   -0.237100   -0.160900    0.907613    2.000000 Uiso  1.0000
 Cl4_A_n92 Cl1-   -0.237100    0.160900    0.907613    2.000000 Uiso  1.0000
 Cl5_A_n92 Cl1-    0.237100   -0.160900    0.912387    2.000000 Uiso  1.0000
 Cl6_A_n92 Cl1-    0.237100    0.160900    0.912387    2.000000 Uiso  1.0000
 Li1a_A_n92 Li+    0.000000    0.334700    0.910000    2.000000 Uiso  1.0000
 Li1b_A_n92 Li+    0.000000    0.665300    0.910000    2.000000 Uiso  1.0000
 Li2a_A_n92 Li+    0.500000    0.169000    0.910000    2.000000 Uiso  0.3650
 Li2b_A_n92 Li+    0.500000    0.831000    0.910000    2.000000 Uiso  0.3650
 Li3_A_n92 Li+    0.500000    0.500000    0.910000    2.000000 Uiso  0.2700
 Sc1_A_n93 Sc3+    0.000000    0.000000    0.920000    2.000000 Uiso  1.0000
 Cl1_A_n93 Cl1-    0.231300    0.000000    0.917579    2.000000 Uiso  1.0000
 Cl2_A_n93 Cl1-   -0.231300    0.000000    0.922421    2.000000 Uiso  1.0000
 Cl3_A_n93 Cl1-   -0.237100   -0.160900    0.917613    2.000000 Uiso  1.0000
 Cl4_A_n93 Cl1-   -0.237100    0.160900    0.917613    2.000000 Uiso  1.0000
 Cl5_A_n93 Cl1-    0.237100   -0.160900    0.922387    2.000000 Uiso  1.0000
 Cl6_A_n93 Cl1-    0.237100    0.160900    0.922387    2.000000 Uiso  1.0000
 Li1a_A_n93 Li+    0.000000    0.334700    0.920000    2.000000 Uiso  1.0000
 Li1b_A_n93 Li+    0.000000    0.665300    0.920000    2.000000 Uiso  1.0000
 Li2a_A_n93 Li+    0.500000    0.169000    0.920000    2.000000 Uiso  0.3650
 Li2b_A_n93 Li+    0.500000    0.831000    0.920000    2.000000 Uiso  0.3650
 Li3_A_n93 Li+    0.500000    0.500000    0.920000    2.000000 Uiso  0.2700
 Sc1_A_n94 Sc3+    0.000000    0.000000    0.930000    2.000000 Uiso  1.0000
 Cl1_A_n94 Cl1-    0.231300    0.000000    0.927579    2.000000 Uiso  1.0000
 Cl2_A_n94 Cl1-   -0.231300    0.000000    0.932421    2.000000 Uiso  1.0000
 Cl3_A_n94 Cl1-   -0.237100   -0.160900    0.927613    2.000000 Uiso  1.0000
 Cl4_A_n94 Cl1-   -0.237100    0.160900    0.927613    2.000000 Uiso  1.0000
 Cl5_A_n94 Cl1-    0.237100   -0.160900    0.932387    2.000000 Uiso  1.0000
 Cl6_A_n94 Cl1-    0.237100    0.160900    0.932387    2.000000 Uiso  1.0000
 Li1a_A_n94 Li+    0.000000    0.334700    0.930000    2.000000 Uiso  1.0000
 Li1b_A_n94 Li+    0.000000    0.665300    0.930000    2.000000 Uiso  1.0000
 Li2a_A_n94 Li+    0.500000    0.169000    0.930000    2.000000 Uiso  0.3650
 Li2b_A_n94 Li+    0.500000    0.831000    0.930000    2.000000 Uiso  0.3650
 Li3_A_n94 Li+    0.500000    0.500000    0.930000    2.000000 Uiso  0.2700
 Sc1_A_n95 Sc3+    0.000000    0.000000    0.940000    2.000000 Uiso  1.0000
 Cl1_A_n95 Cl1-    0.231300    0.000000    0.937579    2.000000 Uiso  1.0000
 Cl2_A_n95 Cl1-   -0.231300    0.000000    0.942421    2.000000 Uiso  1.0000
 Cl3_A_n95 Cl1-   -0.237100   -0.160900    0.937613    2.000000 Uiso  1.0000
 Cl4_A_n95 Cl1-   -0.237100    0.160900    0.937613    2.000000 Uiso  1.0000
 Cl5_A_n95 Cl1-    0.237100   -0.160900    0.942387    2.000000 Uiso  1.0000
 Cl6_A_n95 Cl1-    0.237100    0.160900    0.942387    2.000000 Uiso  1.0000
 Li1a_A_n95 Li+    0.000000    0.334700    0.940000    2.000000 Uiso  1.0000
 Li1b_A_n95 Li+    0.000000    0.665300    0.940000    2.000000 Uiso  1.0000
 Li2a_A_n95 Li+    0.500000    0.169000    0.940000    2.000000 Uiso  0.3650
 Li2b_A_n95 Li+    0.500000    0.831000    0.940000    2.000000 Uiso  0.3650
 Li3_A_n95 Li+    0.500000    0.500000    0.940000    2.000000 Uiso  0.2700
 Sc1_A_n96 Sc3+    0.000000    0.000000    0.950000    2.000000 Uiso  1.0000
 Cl1_A_n96 Cl1-    0.231300    0.000000    0.947579    2.000000 Uiso  1.0000
 Cl2_A_n96 Cl1-   -0.231300    0.000000    0.952421    2.000000 Uiso  1.0000
 Cl3_A_n96 Cl1-   -0.237100   -0.160900    0.947613    2.000000 Uiso  1.0000
 Cl4_A_n96 Cl1-   -0.237100    0.160900    0.947613    2.000000 Uiso  1.0000
 Cl5_A_n96 Cl1-    0.237100   -0.160900    0.952387    2.000000 Uiso  1.0000
 Cl6_A_n96 Cl1-    0.237100    0.160900    0.952387    2.000000 Uiso  1.0000
 Li1a_A_n96 Li+    0.000000    0.334700    0.950000    2.000000 Uiso  1.0000
 Li1b_A_n96 Li+    0.000000    0.665300    0.950000    2.000000 Uiso  1.0000
 Li2a_A_n96 Li+    0.500000    0.169000    0.950000    2.000000 Uiso  0.3650
 Li2b_A_n96 Li+    0.500000    0.831000    0.950000    2.000000 Uiso  0.3650
 Li3_A_n96 Li+    0.500000    0.500000    0.950000    2.000000 Uiso  0.2700
 Sc1_A_n97 Sc3+    0.000000    0.000000    0.960000    2.000000 Uiso  1.0000
 Cl1_A_n97 Cl1-    0.231300    0.000000    0.957579    2.000000 Uiso  1.0000
 Cl2_A_n97 Cl1-   -0.231300    0.000000    0.962421    2.000000 Uiso  1.0000
 Cl3_A_n97 Cl1-   -0.237100   -0.160900    0.957613    2.000000 Uiso  1.0000
 Cl4_A_n97 Cl1-   -0.237100    0.160900    0.957613    2.000000 Uiso  1.0000
 Cl5_A_n97 Cl1-    0.237100   -0.160900    0.962387    2.000000 Uiso  1.0000
 Cl6_A_n97 Cl1-    0.237100    0.160900    0.962387    2.000000 Uiso  1.0000
 Li1a_A_n97 Li+    0.000000    0.334700    0.960000    2.000000 Uiso  1.0000
 Li1b_A_n97 Li+    0.000000    0.665300    0.960000    2.000000 Uiso  1.0000
 Li2a_A_n97 Li+    0.500000    0.169000    0.960000    2.000000 Uiso  0.3650
 Li2b_A_n97 Li+    0.500000    0.831000    0.960000    2.000000 Uiso  0.3650
 Li3_A_n97 Li+    0.500000    0.500000    0.960000    2.000000 Uiso  0.2700
 Sc1_A_n98 Sc3+    0.000000    0.000000    0.970000    2.000000 Uiso  1.0000
 Cl1_A_n98 Cl1-    0.231300    0.000000    0.967579    2.000000 Uiso  1.0000
 Cl2_A_n98 Cl1-   -0.231300    0.000000    0.972421    2.000000 Uiso  1.0000
 Cl3_A_n98 Cl1-   -0.237100   -0.160900    0.967613    2.000000 Uiso  1.0000
 Cl4_A_n98 Cl1-   -0.237100    0.160900    0.967613    2.000000 Uiso  1.0000
 Cl5_A_n98 Cl1-    0.237100   -0.160900    0.972387    2.000000 Uiso  1.0000
 Cl6_A_n98 Cl1-    0.237100    0.160900    0.972387    2.000000 Uiso  1.0000
 Li1a_A_n98 Li+    0.000000    0.334700    0.970000    2.000000 Uiso  1.0000
 Li1b_A_n98 Li+    0.000000    0.665300    0.970000    2.000000 Uiso  1.0000
 Li2a_A_n98 Li+    0.500000    0.169000    0.970000    2.000000 Uiso  0.3650
 Li2b_A_n98 Li+    0.500000    0.831000    0.970000    2.000000 Uiso  0.3650
 Li3_A_n98 Li+    0.500000    0.500000    0.970000    2.000000 Uiso  0.2700
 Sc1_A_n99 Sc3+    0.000000    0.000000    0.980000    2.000000 Uiso  1.0000
 Cl1_A_n99 Cl1-    0.231300    0.000000    0.977579    2.000000 Uiso  1.0000
 Cl2_A_n99 Cl1-   -0.231300    0.000000    0.982421    2.000000 Uiso  1.0000
 Cl3_A_n99 Cl1-   -0.237100   -0.160900    0.977613    2.000000 Uiso  1.0000
 Cl4_A_n99 Cl1-   -0.237100    0.160900    0.977613    2.000000 Uiso  1.0000
 Cl5_A_n99 Cl1-    0.237100   -0.160900    0.982387    2.000000 Uiso  1.0000
 Cl6_A_n99 Cl1-    0.237100    0.160900    0.982387    2.000000 Uiso  1.0000
 Li1a_A_n99 Li+    0.000000    0.334700    0.980000    2.000000 Uiso  1.0000
 Li1b_A_n99 Li+    0.000000    0.665300    0.980000    2.000000 Uiso  1.0000
 Li2a_A_n99 Li+    0.500000    0.169000    0.980000    2.000000 Uiso  0.3650
 Li2b_A_n99 Li+    0.500000    0.831000    0.980000    2.000000 Uiso  0.3650
 Li3_A_n99 Li+    0.500000    0.500000    0.980000    2.000000 Uiso  0.2700
 Sc1_A_n100 Sc3+    0.000000    0.000000    0.990000    2.000000 Uiso  1.0000
 Cl1_A_n100 Cl1-    0.231300    0.000000    0.987579    2.000000 Uiso  1.0000
 Cl2_A_n100 Cl1-   -0.231300    0.000000    0.992421    2.000000 Uiso  1.0000
 Cl3_A_n100 Cl1-   -0.237100   -0.160900    0.987613    2.000000 Uiso  1.0000
 Cl4_A_n100 Cl1-   -0.237100    0.160900    0.987613    2.000000 Uiso  1.0000
 Cl5_A_n100 Cl1-    0.237100   -0.160900    0.992387    2.000000 Uiso  1.0000
 Cl6_A_n100 Cl1-    0.237100    0.160900    0.992387    2.000000 Uiso  1.0000
 Li1a_A_n100 Li+    0.000000    0.334700    0.990000    2.000000 Uiso  1.0000
 Li1b_A_n100 Li+    0.000000    0.665300    0.990000    2.000000 Uiso  1.0000
 Li2a_A_n100 Li+    0.500000    0.169000    0.990000    2.000000 Uiso  0.3650
 Li2b_A_n100 Li+    0.500000    0.831000    0.990000    2.000000 Uiso  0.3650
 Li3_A_n100 Li+    0.500000    0.500000    0.990000    2.000000 Uiso  0.2700
 Sc1_B_n1 Sc3+    0.000000    0.000000    0.000000    2.000000 Uiso  1.0000
 Cl1_B_n1 Cl1-    0.231300    0.000000   -0.002421    2.000000 Uiso  1.0000
 Cl2_B_n1 Cl1-   -0.231300    0.000000    0.002421    2.000000 Uiso  1.0000
 Cl3_B_n1 Cl1-   -0.237100   -0.160900   -0.002387    2.000000 Uiso  1.0000
 Cl4_B_n1 Cl1-   -0.237100    0.160900   -0.002387    2.000000 Uiso  1.0000
 Cl5_B_n1 Cl1-    0.237100   -0.160900    0.002387    2.000000 Uiso  1.0000
 Cl6_B_n1 Cl1-    0.237100    0.160900    0.002387    2.000000 Uiso  1.0000
 Li1a_B_n1 Li+    0.000000    0.334700    0.000000    2.000000 Uiso  1.0000
 Li1b_B_n1 Li+    0.000000    0.665300    0.000000    2.000000 Uiso  1.0000
 Li2a_B_n1 Li+    0.500000    0.169000    0.000000    2.000000 Uiso  0.3650
 Li2b_B_n1 Li+    0.500000    0.831000    0.000000    2.000000 Uiso  0.3650
 Li3_B_n1 Li+    0.500000    0.500000    0.000000    2.000000 Uiso  0.2700
 Sc1_B_n2 Sc3+    0.000000    0.000000    0.010000    2.000000 Uiso  1.0000
 Cl1_B_n2 Cl1-    0.231300    0.000000    0.007579    2.000000 Uiso  1.0000
 Cl2_B_n2 Cl1-   -0.231300    0.000000    0.012421    2.000000 Uiso  1.0000
 Cl3_B_n2 Cl1-   -0.237100   -0.160900    0.007613    2.000000 Uiso  1.0000
 Cl4_B_n2 Cl1-   -0.237100    0.160900    0.007613    2.000000 Uiso  1.0000
 Cl5_B_n2 Cl1-    0.237100   -0.160900    0.012387    2.000000 Uiso  1.0000
 Cl6_B_n2 Cl1-    0.237100    0.160900    0.012387    2.000000 Uiso  1.0000
 Li1a_B_n2 Li+    0.000000    0.334700    0.010000    2.000000 Uiso  1.0000
 Li1b_B_n2 Li+    0.000000    0.665300    0.010000    2.000000 Uiso  1.0000
 Li2a_B_n2 Li+    0.500000    0.169000    0.010000    2.000000 Uiso  0.3650
 Li2b_B_n2 Li+    0.500000    0.831000    0.010000    2.000000 Uiso  0.3650
 Li3_B_n2 Li+    0.500000    0.500000    0.010000    2.000000 Uiso  0.2700
 Sc1_B_n3 Sc3+    0.000000    0.000000    0.020000    2.000000 Uiso  1.0000
 Cl1_B_n3 Cl1-    0.231300    0.000000    0.017579    2.000000 Uiso  1.0000
 Cl2_B_n3 Cl1-   -0.231300    0.000000    0.022421    2.000000 Uiso  1.0000
 Cl3_B_n3 Cl1-   -0.237100   -0.160900    0.017613    2.000000 Uiso  1.0000
 Cl4_B_n3 Cl1-   -0.237100    0.160900    0.017613    2.000000 Uiso  1.0000
 Cl5_B_n3 Cl1-    0.237100   -0.160900    0.022387    2.000000 Uiso  1.0000
 Cl6_B_n3 Cl1-    0.237100    0.160900    0.022387    2.000000 Uiso  1.0000
 Li1a_B_n3 Li+    0.000000    0.334700    0.020000    2.000000 Uiso  1.0000
 Li1b_B_n3 Li+    0.000000    0.665300    0.020000    2.000000 Uiso  1.0000
 Li2a_B_n3 Li+    0.500000    0.169000    0.020000    2.000000 Uiso  0.3650
 Li2b_B_n3 Li+    0.500000    0.831000    0.020000    2.000000 Uiso  0.3650
 Li3_B_n3 Li+    0.500000    0.500000    0.020000    2.000000 Uiso  0.2700
 Sc1_B_n4 Sc3+    0.000000    0.000000    0.030000    2.000000 Uiso  1.0000
 Cl1_B_n4 Cl1-    0.231300    0.000000    0.027579    2.000000 Uiso  1.0000
 Cl2_B_n4 Cl1-   -0.231300    0.000000    0.032421    2.000000 Uiso  1.0000
 Cl3_B_n4 Cl1-   -0.237100   -0.160900    0.027613    2.000000 Uiso  1.0000
 Cl4_B_n4 Cl1-   -0.237100    0.160900    0.027613    2.000000 Uiso  1.0000
 Cl5_B_n4 Cl1-    0.237100   -0.160900    0.032387    2.000000 Uiso  1.0000
 Cl6_B_n4 Cl1-    0.237100    0.160900    0.032387    2.000000 Uiso  1.0000
 Li1a_B_n4 Li+    0.000000    0.334700    0.030000    2.000000 Uiso  1.0000
 Li1b_B_n4 Li+    0.000000    0.665300    0.030000    2.000000 Uiso  1.0000
 Li2a_B_n4 Li+    0.500000    0.169000    0.030000    2.000000 Uiso  0.3650
 Li2b_B_n4 Li+    0.500000    0.831000    0.030000    2.000000 Uiso  0.3650
 Li3_B_n4 Li+    0.500000    0.500000    0.030000    2.000000 Uiso  0.2700
 Sc1_B_n5 Sc3+    0.000000    0.000000    0.040000    2.000000 Uiso  1.0000
 Cl1_B_n5 Cl1-    0.231300    0.000000    0.037579    2.000000 Uiso  1.0000
 Cl2_B_n5 Cl1-   -0.231300    0.000000    0.042421    2.000000 Uiso  1.0000
 Cl3_B_n5 Cl1-   -0.237100   -0.160900    0.037613    2.000000 Uiso  1.0000
 Cl4_B_n5 Cl1-   -0.237100    0.160900    0.037613    2.000000 Uiso  1.0000
 Cl5_B_n5 Cl1-    0.237100   -0.160900    0.042387    2.000000 Uiso  1.0000
 Cl6_B_n5 Cl1-    0.237100    0.160900    0.042387    2.000000 Uiso  1.0000
 Li1a_B_n5 Li+    0.000000    0.334700    0.040000    2.000000 Uiso  1.0000
 Li1b_B_n5 Li+    0.000000    0.665300    0.040000    2.000000 Uiso  1.0000
 Li2a_B_n5 Li+    0.500000    0.169000    0.040000    2.000000 Uiso  0.3650
 Li2b_B_n5 Li+    0.500000    0.831000    0.040000    2.000000 Uiso  0.3650
 Li3_B_n5 Li+    0.500000    0.500000    0.040000    2.000000 Uiso  0.2700
 Sc1_B_n6 Sc3+    0.000000    0.000000    0.050000    2.000000 Uiso  1.0000
 Cl1_B_n6 Cl1-    0.231300    0.000000    0.047579    2.000000 Uiso  1.0000
 Cl2_B_n6 Cl1-   -0.231300    0.000000    0.052421    2.000000 Uiso  1.0000
 Cl3_B_n6 Cl1-   -0.237100   -0.160900    0.047613    2.000000 Uiso  1.0000
 Cl4_B_n6 Cl1-   -0.237100    0.160900    0.047613    2.000000 Uiso  1.0000
 Cl5_B_n6 Cl1-    0.237100   -0.160900    0.052387    2.000000 Uiso  1.0000
 Cl6_B_n6 Cl1-    0.237100    0.160900    0.052387    2.000000 Uiso  1.0000
 Li1a_B_n6 Li+    0.000000    0.334700    0.050000    2.000000 Uiso  1.0000
 Li1b_B_n6 Li+    0.000000    0.665300    0.050000    2.000000 Uiso  1.0000
 Li2a_B_n6 Li+    0.500000    0.169000    0.050000    2.000000 Uiso  0.3650
 Li2b_B_n6 Li+    0.500000    0.831000    0.050000    2.000000 Uiso  0.3650
 Li3_B_n6 Li+    0.500000    0.500000    0.050000    2.000000 Uiso  0.2700
 Sc1_B_n7 Sc3+    0.000000    0.000000    0.060000    2.000000 Uiso  1.0000
 Cl1_B_n7 Cl1-    0.231300    0.000000    0.057579    2.000000 Uiso  1.0000
 Cl2_B_n7 Cl1-   -0.231300    0.000000    0.062421    2.000000 Uiso  1.0000
 Cl3_B_n7 Cl1-   -0.237100   -0.160900    0.057613    2.000000 Uiso  1.0000
 Cl4_B_n7 Cl1-   -0.237100    0.160900    0.057613    2.000000 Uiso  1.0000
 Cl5_B_n7 Cl1-    0.237100   -0.160900    0.062387    2.000000 Uiso  1.0000
 Cl6_B_n7 Cl1-    0.237100    0.160900    0.062387    2.000000 Uiso  1.0000
 Li1a_B_n7 Li+    0.000000    0.334700    0.060000    2.000000 Uiso  1.0000
 Li1b_B_n7 Li+    0.000000    0.665300    0.060000    2.000000 Uiso  1.0000
 Li2a_B_n7 Li+    0.500000    0.169000    0.060000    2.000000 Uiso  0.3650
 Li2b_B_n7 Li+    0.500000    0.831000    0.060000    2.000000 Uiso  0.3650
 Li3_B_n7 Li+    0.500000    0.500000    0.060000    2.000000 Uiso  0.2700
 Sc1_B_n8 Sc3+    0.000000    0.000000    0.070000    2.000000 Uiso  1.0000
 Cl1_B_n8 Cl1-    0.231300    0.000000    0.067579    2.000000 Uiso  1.0000
 Cl2_B_n8 Cl1-   -0.231300    0.000000    0.072421    2.000000 Uiso  1.0000
 Cl3_B_n8 Cl1-   -0.237100   -0.160900    0.067613    2.000000 Uiso  1.0000
 Cl4_B_n8 Cl1-   -0.237100    0.160900    0.067613    2.000000 Uiso  1.0000
 Cl5_B_n8 Cl1-    0.237100   -0.160900    0.072387    2.000000 Uiso  1.0000
 Cl6_B_n8 Cl1-    0.237100    0.160900    0.072387    2.000000 Uiso  1.0000
 Li1a_B_n8 Li+    0.000000    0.334700    0.070000    2.000000 Uiso  1.0000
 Li1b_B_n8 Li+    0.000000    0.665300    0.070000    2.000000 Uiso  1.0000
 Li2a_B_n8 Li+    0.500000    0.169000    0.070000    2.000000 Uiso  0.3650
 Li2b_B_n8 Li+    0.500000    0.831000    0.070000    2.000000 Uiso  0.3650
 Li3_B_n8 Li+    0.500000    0.500000    0.070000    2.000000 Uiso  0.2700
 Sc1_B_n9 Sc3+    0.000000    0.000000    0.080000    2.000000 Uiso  1.0000
 Cl1_B_n9 Cl1-    0.231300    0.000000    0.077579    2.000000 Uiso  1.0000
 Cl2_B_n9 Cl1-   -0.231300    0.000000    0.082421    2.000000 Uiso  1.0000
 Cl3_B_n9 Cl1-   -0.237100   -0.160900    0.077613    2.000000 Uiso  1.0000
 Cl4_B_n9 Cl1-   -0.237100    0.160900    0.077613    2.000000 Uiso  1.0000
 Cl5_B_n9 Cl1-    0.237100   -0.160900    0.082387    2.000000 Uiso  1.0000
 Cl6_B_n9 Cl1-    0.237100    0.160900    0.082387    2.000000 Uiso  1.0000
 Li1a_B_n9 Li+    0.000000    0.334700    0.080000    2.000000 Uiso  1.0000
 Li1b_B_n9 Li+    0.000000    0.665300    0.080000    2.000000 Uiso  1.0000
 Li2a_B_n9 Li+    0.500000    0.169000    0.080000    2.000000 Uiso  0.3650
 Li2b_B_n9 Li+    0.500000    0.831000    0.080000    2.000000 Uiso  0.3650
 Li3_B_n9 Li+    0.500000    0.500000    0.080000    2.000000 Uiso  0.2700
 Sc1_B_n10 Sc3+    0.000000    0.000000    0.090000    2.000000 Uiso  1.0000
 Cl1_B_n10 Cl1-    0.231300    0.000000    0.087579    2.000000 Uiso  1.0000
 Cl2_B_n10 Cl1-   -0.231300    0.000000    0.092421    2.000000 Uiso  1.0000
 Cl3_B_n10 Cl1-   -0.237100   -0.160900    0.087613    2.000000 Uiso  1.0000
 Cl4_B_n10 Cl1-   -0.237100    0.160900    0.087613    2.000000 Uiso  1.0000
 Cl5_B_n10 Cl1-    0.237100   -0.160900    0.092387    2.000000 Uiso  1.0000
 Cl6_B_n10 Cl1-    0.237100    0.160900    0.092387    2.000000 Uiso  1.0000
 Li1a_B_n10 Li+    0.000000    0.334700    0.090000    2.000000 Uiso  1.0000
 Li1b_B_n10 Li+    0.000000    0.665300    0.090000    2.000000 Uiso  1.0000
 Li2a_B_n10 Li+    0.500000    0.169000    0.090000    2.000000 Uiso  0.3650
 Li2b_B_n10 Li+    0.500000    0.831000    0.090000    2.000000 Uiso  0.3650
 Li3_B_n10 Li+    0.500000    0.500000    0.090000    2.000000 Uiso  0.2700
 Sc1_B_n11 Sc3+    0.000000    0.000000    0.100000    2.000000 Uiso  1.0000
 Cl1_B_n11 Cl1-    0.231300    0.000000    0.097579    2.000000 Uiso  1.0000
 Cl2_B_n11 Cl1-   -0.231300    0.000000    0.102421    2.000000 Uiso  1.0000
 Cl3_B_n11 Cl1-   -0.237100   -0.160900    0.097613    2.000000 Uiso  1.0000
 Cl4_B_n11 Cl1-   -0.237100    0.160900    0.097613    2.000000 Uiso  1.0000
 Cl5_B_n11 Cl1-    0.237100   -0.160900    0.102387    2.000000 Uiso  1.0000
 Cl6_B_n11 Cl1-    0.237100    0.160900    0.102387    2.000000 Uiso  1.0000
 Li1a_B_n11 Li+    0.000000    0.334700    0.100000    2.000000 Uiso  1.0000
 Li1b_B_n11 Li+    0.000000    0.665300    0.100000    2.000000 Uiso  1.0000
 Li2a_B_n11 Li+    0.500000    0.169000    0.100000    2.000000 Uiso  0.3650
 Li2b_B_n11 Li+    0.500000    0.831000    0.100000    2.000000 Uiso  0.3650
 Li3_B_n11 Li+    0.500000    0.500000    0.100000    2.000000 Uiso  0.2700
 Sc1_B_n12 Sc3+    0.000000    0.000000    0.110000    2.000000 Uiso  1.0000
 Cl1_B_n12 Cl1-    0.231300    0.000000    0.107579    2.000000 Uiso  1.0000
 Cl2_B_n12 Cl1-   -0.231300    0.000000    0.112421    2.000000 Uiso  1.0000
 Cl3_B_n12 Cl1-   -0.237100   -0.160900    0.107613    2.000000 Uiso  1.0000
 Cl4_B_n12 Cl1-   -0.237100    0.160900    0.107613    2.000000 Uiso  1.0000
 Cl5_B_n12 Cl1-    0.237100   -0.160900    0.112387    2.000000 Uiso  1.0000
 Cl6_B_n12 Cl1-    0.237100    0.160900    0.112387    2.000000 Uiso  1.0000
 Li1a_B_n12 Li+    0.000000    0.334700    0.110000    2.000000 Uiso  1.0000
 Li1b_B_n12 Li+    0.000000    0.665300    0.110000    2.000000 Uiso  1.0000
 Li2a_B_n12 Li+    0.500000    0.169000    0.110000    2.000000 Uiso  0.3650
 Li2b_B_n12 Li+    0.500000    0.831000    0.110000    2.000000 Uiso  0.3650
 Li3_B_n12 Li+    0.500000    0.500000    0.110000    2.000000 Uiso  0.2700
 Sc1_B_n13 Sc3+    0.000000    0.000000    0.120000    2.000000 Uiso  1.0000
 Cl1_B_n13 Cl1-    0.231300    0.000000    0.117579    2.000000 Uiso  1.0000
 Cl2_B_n13 Cl1-   -0.231300    0.000000    0.122421    2.000000 Uiso  1.0000
 Cl3_B_n13 Cl1-   -0.237100   -0.160900    0.117613    2.000000 Uiso  1.0000
 Cl4_B_n13 Cl1-   -0.237100    0.160900    0.117613    2.000000 Uiso  1.0000
 Cl5_B_n13 Cl1-    0.237100   -0.160900    0.122387    2.000000 Uiso  1.0000
 Cl6_B_n13 Cl1-    0.237100    0.160900    0.122387    2.000000 Uiso  1.0000
 Li1a_B_n13 Li+    0.000000    0.334700    0.120000    2.000000 Uiso  1.0000
 Li1b_B_n13 Li+    0.000000    0.665300    0.120000    2.000000 Uiso  1.0000
 Li2a_B_n13 Li+    0.500000    0.169000    0.120000    2.000000 Uiso  0.3650
 Li2b_B_n13 Li+    0.500000    0.831000    0.120000    2.000000 Uiso  0.3650
 Li3_B_n13 Li+    0.500000    0.500000    0.120000    2.000000 Uiso  0.2700
 Sc1_B_n14 Sc3+    0.000000    0.000000    0.130000    2.000000 Uiso  1.0000
 Cl1_B_n14 Cl1-    0.231300    0.000000    0.127579    2.000000 Uiso  1.0000
 Cl2_B_n14 Cl1-   -0.231300    0.000000    0.132421    2.000000 Uiso  1.0000
 Cl3_B_n14 Cl1-   -0.237100   -0.160900    0.127613    2.000000 Uiso  1.0000
 Cl4_B_n14 Cl1-   -0.237100    0.160900    0.127613    2.000000 Uiso  1.0000
 Cl5_B_n14 Cl1-    0.237100   -0.160900    0.132387    2.000000 Uiso  1.0000
 Cl6_B_n14 Cl1-    0.237100    0.160900    0.132387    2.000000 Uiso  1.0000
 Li1a_B_n14 Li+    0.000000    0.334700    0.130000    2.000000 Uiso  1.0000
 Li1b_B_n14 Li+    0.000000    0.665300    0.130000    2.000000 Uiso  1.0000
 Li2a_B_n14 Li+    0.500000    0.169000    0.130000    2.000000 Uiso  0.3650
 Li2b_B_n14 Li+    0.500000    0.831000    0.130000    2.000000 Uiso  0.3650
 Li3_B_n14 Li+    0.500000    0.500000    0.130000    2.000000 Uiso  0.2700
 Sc1_B_n15 Sc3+    0.000000    0.000000    0.140000    2.000000 Uiso  1.0000
 Cl1_B_n15 Cl1-    0.231300    0.000000    0.137579    2.000000 Uiso  1.0000
 Cl2_B_n15 Cl1-   -0.231300    0.000000    0.142421    2.000000 Uiso  1.0000
 Cl3_B_n15 Cl1-   -0.237100   -0.160900    0.137613    2.000000 Uiso  1.0000
 Cl4_B_n15 Cl1-   -0.237100    0.160900    0.137613    2.000000 Uiso  1.0000
 Cl5_B_n15 Cl1-    0.237100   -0.160900    0.142387    2.000000 Uiso  1.0000
 Cl6_B_n15 Cl1-    0.237100    0.160900    0.142387    2.000000 Uiso  1.0000
 Li1a_B_n15 Li+    0.000000    0.334700    0.140000    2.000000 Uiso  1.0000
 Li1b_B_n15 Li+    0.000000    0.665300    0.140000    2.000000 Uiso  1.0000
 Li2a_B_n15 Li+    0.500000    0.169000    0.140000    2.000000 Uiso  0.3650
 Li2b_B_n15 Li+    0.500000    0.831000    0.140000    2.000000 Uiso  0.3650
 Li3_B_n15 Li+    0.500000    0.500000    0.140000    2.000000 Uiso  0.2700
 Sc1_B_n16 Sc3+    0.000000    0.000000    0.150000    2.000000 Uiso  1.0000
 Cl1_B_n16 Cl1-    0.231300    0.000000    0.147579    2.000000 Uiso  1.0000
 Cl2_B_n16 Cl1-   -0.231300    0.000000    0.152421    2.000000 Uiso  1.0000
 Cl3_B_n16 Cl1-   -0.237100   -0.160900    0.147613    2.000000 Uiso  1.0000
 Cl4_B_n16 Cl1-   -0.237100    0.160900    0.147613    2.000000 Uiso  1.0000
 Cl5_B_n16 Cl1-    0.237100   -0.160900    0.152387    2.000000 Uiso  1.0000
 Cl6_B_n16 Cl1-    0.237100    0.160900    0.152387    2.000000 Uiso  1.0000
 Li1a_B_n16 Li+    0.000000    0.334700    0.150000    2.000000 Uiso  1.0000
 Li1b_B_n16 Li+    0.000000    0.665300    0.150000    2.000000 Uiso  1.0000
 Li2a_B_n16 Li+    0.500000    0.169000    0.150000    2.000000 Uiso  0.3650
 Li2b_B_n16 Li+    0.500000    0.831000    0.150000    2.000000 Uiso  0.3650
 Li3_B_n16 Li+    0.500000    0.500000    0.150000    2.000000 Uiso  0.2700
 Sc1_B_n17 Sc3+    0.000000    0.000000    0.160000    2.000000 Uiso  1.0000
 Cl1_B_n17 Cl1-    0.231300    0.000000    0.157579    2.000000 Uiso  1.0000
 Cl2_B_n17 Cl1-   -0.231300    0.000000    0.162421    2.000000 Uiso  1.0000
 Cl3_B_n17 Cl1-   -0.237100   -0.160900    0.157613    2.000000 Uiso  1.0000
 Cl4_B_n17 Cl1-   -0.237100    0.160900    0.157613    2.000000 Uiso  1.0000
 Cl5_B_n17 Cl1-    0.237100   -0.160900    0.162387    2.000000 Uiso  1.0000
 Cl6_B_n17 Cl1-    0.237100    0.160900    0.162387    2.000000 Uiso  1.0000
 Li1a_B_n17 Li+    0.000000    0.334700    0.160000    2.000000 Uiso  1.0000
 Li1b_B_n17 Li+    0.000000    0.665300    0.160000    2.000000 Uiso  1.0000
 Li2a_B_n17 Li+    0.500000    0.169000    0.160000    2.000000 Uiso  0.3650
 Li2b_B_n17 Li+    0.500000    0.831000    0.160000    2.000000 Uiso  0.3650
 Li3_B_n17 Li+    0.500000    0.500000    0.160000    2.000000 Uiso  0.2700
 Sc1_B_n18 Sc3+    0.000000    0.000000    0.170000    2.000000 Uiso  1.0000
 Cl1_B_n18 Cl1-    0.231300    0.000000    0.167579    2.000000 Uiso  1.0000
 Cl2_B_n18 Cl1-   -0.231300    0.000000    0.172421    2.000000 Uiso  1.0000
 Cl3_B_n18 Cl1-   -0.237100   -0.160900    0.167613    2.000000 Uiso  1.0000
 Cl4_B_n18 Cl1-   -0.237100    0.160900    0.167613    2.000000 Uiso  1.0000
 Cl5_B_n18 Cl1-    0.237100   -0.160900    0.172387    2.000000 Uiso  1.0000
 Cl6_B_n18 Cl1-    0.237100    0.160900    0.172387    2.000000 Uiso  1.0000
 Li1a_B_n18 Li+    0.000000    0.334700    0.170000    2.000000 Uiso  1.0000
 Li1b_B_n18 Li+    0.000000    0.665300    0.170000    2.000000 Uiso  1.0000
 Li2a_B_n18 Li+    0.500000    0.169000    0.170000    2.000000 Uiso  0.3650
 Li2b_B_n18 Li+    0.500000    0.831000    0.170000    2.000000 Uiso  0.3650
 Li3_B_n18 Li+    0.500000    0.500000    0.170000    2.000000 Uiso  0.2700
 Sc1_B_n19 Sc3+    0.000000    0.000000    0.180000    2.000000 Uiso  1.0000
 Cl1_B_n19 Cl1-    0.231300    0.000000    0.177579    2.000000 Uiso  1.0000
 Cl2_B_n19 Cl1-   -0.231300    0.000000    0.182421    2.000000 Uiso  1.0000
 Cl3_B_n19 Cl1-   -0.237100   -0.160900    0.177613    2.000000 Uiso  1.0000
 Cl4_B_n19 Cl1-   -0.237100    0.160900    0.177613    2.000000 Uiso  1.0000
 Cl5_B_n19 Cl1-    0.237100   -0.160900    0.182387    2.000000 Uiso  1.0000
 Cl6_B_n19 Cl1-    0.237100    0.160900    0.182387    2.000000 Uiso  1.0000
 Li1a_B_n19 Li+    0.000000    0.334700    0.180000    2.000000 Uiso  1.0000
 Li1b_B_n19 Li+    0.000000    0.665300    0.180000    2.000000 Uiso  1.0000
 Li2a_B_n19 Li+    0.500000    0.169000    0.180000    2.000000 Uiso  0.3650
 Li2b_B_n19 Li+    0.500000    0.831000    0.180000    2.000000 Uiso  0.3650
 Li3_B_n19 Li+    0.500000    0.500000    0.180000    2.000000 Uiso  0.2700
 Sc1_B_n20 Sc3+    0.000000    0.000000    0.190000    2.000000 Uiso  1.0000
 Cl1_B_n20 Cl1-    0.231300    0.000000    0.187579    2.000000 Uiso  1.0000
 Cl2_B_n20 Cl1-   -0.231300    0.000000    0.192421    2.000000 Uiso  1.0000
 Cl3_B_n20 Cl1-   -0.237100   -0.160900    0.187613    2.000000 Uiso  1.0000
 Cl4_B_n20 Cl1-   -0.237100    0.160900    0.187613    2.000000 Uiso  1.0000
 Cl5_B_n20 Cl1-    0.237100   -0.160900    0.192387    2.000000 Uiso  1.0000
 Cl6_B_n20 Cl1-    0.237100    0.160900    0.192387    2.000000 Uiso  1.0000
 Li1a_B_n20 Li+    0.000000    0.334700    0.190000    2.000000 Uiso  1.0000
 Li1b_B_n20 Li+    0.000000    0.665300    0.190000    2.000000 Uiso  1.0000
 Li2a_B_n20 Li+    0.500000    0.169000    0.190000    2.000000 Uiso  0.3650
 Li2b_B_n20 Li+    0.500000    0.831000    0.190000    2.000000 Uiso  0.3650
 Li3_B_n20 Li+    0.500000    0.500000    0.190000    2.000000 Uiso  0.2700
 Sc1_B_n21 Sc3+    0.000000    0.000000    0.200000    2.000000 Uiso  1.0000
 Cl1_B_n21 Cl1-    0.231300    0.000000    0.197579    2.000000 Uiso  1.0000
 Cl2_B_n21 Cl1-   -0.231300    0.000000    0.202421    2.000000 Uiso  1.0000
 Cl3_B_n21 Cl1-   -0.237100   -0.160900    0.197613    2.000000 Uiso  1.0000
 Cl4_B_n21 Cl1-   -0.237100    0.160900    0.197613    2.000000 Uiso  1.0000
 Cl5_B_n21 Cl1-    0.237100   -0.160900    0.202387    2.000000 Uiso  1.0000
 Cl6_B_n21 Cl1-    0.237100    0.160900    0.202387    2.000000 Uiso  1.0000
 Li1a_B_n21 Li+    0.000000    0.334700    0.200000    2.000000 Uiso  1.0000
 Li1b_B_n21 Li+    0.000000    0.665300    0.200000    2.000000 Uiso  1.0000
 Li2a_B_n21 Li+    0.500000    0.169000    0.200000    2.000000 Uiso  0.3650
 Li2b_B_n21 Li+    0.500000    0.831000    0.200000    2.000000 Uiso  0.3650
 Li3_B_n21 Li+    0.500000    0.500000    0.200000    2.000000 Uiso  0.2700
 Sc1_B_n22 Sc3+    0.000000    0.000000    0.210000    2.000000 Uiso  1.0000
 Cl1_B_n22 Cl1-    0.231300    0.000000    0.207579    2.000000 Uiso  1.0000
 Cl2_B_n22 Cl1-   -0.231300    0.000000    0.212421    2.000000 Uiso  1.0000
 Cl3_B_n22 Cl1-   -0.237100   -0.160900    0.207613    2.000000 Uiso  1.0000
 Cl4_B_n22 Cl1-   -0.237100    0.160900    0.207613    2.000000 Uiso  1.0000
 Cl5_B_n22 Cl1-    0.237100   -0.160900    0.212387    2.000000 Uiso  1.0000
 Cl6_B_n22 Cl1-    0.237100    0.160900    0.212387    2.000000 Uiso  1.0000
 Li1a_B_n22 Li+    0.000000    0.334700    0.210000    2.000000 Uiso  1.0000
 Li1b_B_n22 Li+    0.000000    0.665300    0.210000    2.000000 Uiso  1.0000
 Li2a_B_n22 Li+    0.500000    0.169000    0.210000    2.000000 Uiso  0.3650
 Li2b_B_n22 Li+    0.500000    0.831000    0.210000    2.000000 Uiso  0.3650
 Li3_B_n22 Li+    0.500000    0.500000    0.210000    2.000000 Uiso  0.2700
 Sc1_B_n23 Sc3+    0.000000    0.000000    0.220000    2.000000 Uiso  1.0000
 Cl1_B_n23 Cl1-    0.231300    0.000000    0.217579    2.000000 Uiso  1.0000
 Cl2_B_n23 Cl1-   -0.231300    0.000000    0.222421    2.000000 Uiso  1.0000
 Cl3_B_n23 Cl1-   -0.237100   -0.160900    0.217613    2.000000 Uiso  1.0000
 Cl4_B_n23 Cl1-   -0.237100    0.160900    0.217613    2.000000 Uiso  1.0000
 Cl5_B_n23 Cl1-    0.237100   -0.160900    0.222387    2.000000 Uiso  1.0000
 Cl6_B_n23 Cl1-    0.237100    0.160900    0.222387    2.000000 Uiso  1.0000
 Li1a_B_n23 Li+    0.000000    0.334700    0.220000    2.000000 Uiso  1.0000
 Li1b_B_n23 Li+    0.000000    0.665300    0.220000    2.000000 Uiso  1.0000
 Li2a_B_n23 Li+    0.500000    0.169000    0.220000    2.000000 Uiso  0.3650
 Li2b_B_n23 Li+    0.500000    0.831000    0.220000    2.000000 Uiso  0.3650
 Li3_B_n23 Li+    0.500000    0.500000    0.220000    2.000000 Uiso  0.2700
 Sc1_B_n24 Sc3+    0.000000    0.000000    0.230000    2.000000 Uiso  1.0000
 Cl1_B_n24 Cl1-    0.231300    0.000000    0.227579    2.000000 Uiso  1.0000
 Cl2_B_n24 Cl1-   -0.231300    0.000000    0.232421    2.000000 Uiso  1.0000
 Cl3_B_n24 Cl1-   -0.237100   -0.160900    0.227613    2.000000 Uiso  1.0000
 Cl4_B_n24 Cl1-   -0.237100    0.160900    0.227613    2.000000 Uiso  1.0000
 Cl5_B_n24 Cl1-    0.237100   -0.160900    0.232387    2.000000 Uiso  1.0000
 Cl6_B_n24 Cl1-    0.237100    0.160900    0.232387    2.000000 Uiso  1.0000
 Li1a_B_n24 Li+    0.000000    0.334700    0.230000    2.000000 Uiso  1.0000
 Li1b_B_n24 Li+    0.000000    0.665300    0.230000    2.000000 Uiso  1.0000
 Li2a_B_n24 Li+    0.500000    0.169000    0.230000    2.000000 Uiso  0.3650
 Li2b_B_n24 Li+    0.500000    0.831000    0.230000    2.000000 Uiso  0.3650
 Li3_B_n24 Li+    0.500000    0.500000    0.230000    2.000000 Uiso  0.2700
 Sc1_B_n25 Sc3+    0.000000    0.000000    0.240000    2.000000 Uiso  1.0000
 Cl1_B_n25 Cl1-    0.231300    0.000000    0.237579    2.000000 Uiso  1.0000
 Cl2_B_n25 Cl1-   -0.231300    0.000000    0.242421    2.000000 Uiso  1.0000
 Cl3_B_n25 Cl1-   -0.237100   -0.160900    0.237613    2.000000 Uiso  1.0000
 Cl4_B_n25 Cl1-   -0.237100    0.160900    0.237613    2.000000 Uiso  1.0000
 Cl5_B_n25 Cl1-    0.237100   -0.160900    0.242387    2.000000 Uiso  1.0000
 Cl6_B_n25 Cl1-    0.237100    0.160900    0.242387    2.000000 Uiso  1.0000
 Li1a_B_n25 Li+    0.000000    0.334700    0.240000    2.000000 Uiso  1.0000
 Li1b_B_n25 Li+    0.000000    0.665300    0.240000    2.000000 Uiso  1.0000
 Li2a_B_n25 Li+    0.500000    0.169000    0.240000    2.000000 Uiso  0.3650
 Li2b_B_n25 Li+    0.500000    0.831000    0.240000    2.000000 Uiso  0.3650
 Li3_B_n25 Li+    0.500000    0.500000    0.240000    2.000000 Uiso  0.2700
 Sc1_B_n26 Sc3+    0.000000    0.000000    0.250000    2.000000 Uiso  1.0000
 Cl1_B_n26 Cl1-    0.231300    0.000000    0.247579    2.000000 Uiso  1.0000
 Cl2_B_n26 Cl1-   -0.231300    0.000000    0.252421    2.000000 Uiso  1.0000
 Cl3_B_n26 Cl1-   -0.237100   -0.160900    0.247613    2.000000 Uiso  1.0000
 Cl4_B_n26 Cl1-   -0.237100    0.160900    0.247613    2.000000 Uiso  1.0000
 Cl5_B_n26 Cl1-    0.237100   -0.160900    0.252387    2.000000 Uiso  1.0000
 Cl6_B_n26 Cl1-    0.237100    0.160900    0.252387    2.000000 Uiso  1.0000
 Li1a_B_n26 Li+    0.000000    0.334700    0.250000    2.000000 Uiso  1.0000
 Li1b_B_n26 Li+    0.000000    0.665300    0.250000    2.000000 Uiso  1.0000
 Li2a_B_n26 Li+    0.500000    0.169000    0.250000    2.000000 Uiso  0.3650
 Li2b_B_n26 Li+    0.500000    0.831000    0.250000    2.000000 Uiso  0.3650
 Li3_B_n26 Li+    0.500000    0.500000    0.250000    2.000000 Uiso  0.2700
 Sc1_B_n27 Sc3+    0.000000    0.000000    0.260000    2.000000 Uiso  1.0000
 Cl1_B_n27 Cl1-    0.231300    0.000000    0.257579    2.000000 Uiso  1.0000
 Cl2_B_n27 Cl1-   -0.231300    0.000000    0.262421    2.000000 Uiso  1.0000
 Cl3_B_n27 Cl1-   -0.237100   -0.160900    0.257613    2.000000 Uiso  1.0000
 Cl4_B_n27 Cl1-   -0.237100    0.160900    0.257613    2.000000 Uiso  1.0000
 Cl5_B_n27 Cl1-    0.237100   -0.160900    0.262387    2.000000 Uiso  1.0000
 Cl6_B_n27 Cl1-    0.237100    0.160900    0.262387    2.000000 Uiso  1.0000
 Li1a_B_n27 Li+    0.000000    0.334700    0.260000    2.000000 Uiso  1.0000
 Li1b_B_n27 Li+    0.000000    0.665300    0.260000    2.000000 Uiso  1.0000
 Li2a_B_n27 Li+    0.500000    0.169000    0.260000    2.000000 Uiso  0.3650
 Li2b_B_n27 Li+    0.500000    0.831000    0.260000    2.000000 Uiso  0.3650
 Li3_B_n27 Li+    0.500000    0.500000    0.260000    2.000000 Uiso  0.2700
 Sc1_B_n28 Sc3+    0.000000    0.000000    0.270000    2.000000 Uiso  1.0000
 Cl1_B_n28 Cl1-    0.231300    0.000000    0.267579    2.000000 Uiso  1.0000
 Cl2_B_n28 Cl1-   -0.231300    0.000000    0.272421    2.000000 Uiso  1.0000
 Cl3_B_n28 Cl1-   -0.237100   -0.160900    0.267613    2.000000 Uiso  1.0000
 Cl4_B_n28 Cl1-   -0.237100    0.160900    0.267613    2.000000 Uiso  1.0000
 Cl5_B_n28 Cl1-    0.237100   -0.160900    0.272387    2.000000 Uiso  1.0000
 Cl6_B_n28 Cl1-    0.237100    0.160900    0.272387    2.000000 Uiso  1.0000
 Li1a_B_n28 Li+    0.000000    0.334700    0.270000    2.000000 Uiso  1.0000
 Li1b_B_n28 Li+    0.000000    0.665300    0.270000    2.000000 Uiso  1.0000
 Li2a_B_n28 Li+    0.500000    0.169000    0.270000    2.000000 Uiso  0.3650
 Li2b_B_n28 Li+    0.500000    0.831000    0.270000    2.000000 Uiso  0.3650
 Li3_B_n28 Li+    0.500000    0.500000    0.270000    2.000000 Uiso  0.2700
 Sc1_B_n29 Sc3+    0.000000    0.000000    0.280000    2.000000 Uiso  1.0000
 Cl1_B_n29 Cl1-    0.231300    0.000000    0.277579    2.000000 Uiso  1.0000
 Cl2_B_n29 Cl1-   -0.231300    0.000000    0.282421    2.000000 Uiso  1.0000
 Cl3_B_n29 Cl1-   -0.237100   -0.160900    0.277613    2.000000 Uiso  1.0000
 Cl4_B_n29 Cl1-   -0.237100    0.160900    0.277613    2.000000 Uiso  1.0000
 Cl5_B_n29 Cl1-    0.237100   -0.160900    0.282387    2.000000 Uiso  1.0000
 Cl6_B_n29 Cl1-    0.237100    0.160900    0.282387    2.000000 Uiso  1.0000
 Li1a_B_n29 Li+    0.000000    0.334700    0.280000    2.000000 Uiso  1.0000
 Li1b_B_n29 Li+    0.000000    0.665300    0.280000    2.000000 Uiso  1.0000
 Li2a_B_n29 Li+    0.500000    0.169000    0.280000    2.000000 Uiso  0.3650
 Li2b_B_n29 Li+    0.500000    0.831000    0.280000    2.000000 Uiso  0.3650
 Li3_B_n29 Li+    0.500000    0.500000    0.280000    2.000000 Uiso  0.2700
 Sc1_B_n30 Sc3+    0.000000    0.000000    0.290000    2.000000 Uiso  1.0000
 Cl1_B_n30 Cl1-    0.231300    0.000000    0.287579    2.000000 Uiso  1.0000
 Cl2_B_n30 Cl1-   -0.231300    0.000000    0.292421    2.000000 Uiso  1.0000
 Cl3_B_n30 Cl1-   -0.237100   -0.160900    0.287613    2.000000 Uiso  1.0000
 Cl4_B_n30 Cl1-   -0.237100    0.160900    0.287613    2.000000 Uiso  1.0000
 Cl5_B_n30 Cl1-    0.237100   -0.160900    0.292387    2.000000 Uiso  1.0000
 Cl6_B_n30 Cl1-    0.237100    0.160900    0.292387    2.000000 Uiso  1.0000
 Li1a_B_n30 Li+    0.000000    0.334700    0.290000    2.000000 Uiso  1.0000
 Li1b_B_n30 Li+    0.000000    0.665300    0.290000    2.000000 Uiso  1.0000
 Li2a_B_n30 Li+    0.500000    0.169000    0.290000    2.000000 Uiso  0.3650
 Li2b_B_n30 Li+    0.500000    0.831000    0.290000    2.000000 Uiso  0.3650
 Li3_B_n30 Li+    0.500000    0.500000    0.290000    2.000000 Uiso  0.2700
 Sc1_B_n31 Sc3+    0.000000    0.000000    0.300000    2.000000 Uiso  1.0000
 Cl1_B_n31 Cl1-    0.231300    0.000000    0.297579    2.000000 Uiso  1.0000
 Cl2_B_n31 Cl1-   -0.231300    0.000000    0.302421    2.000000 Uiso  1.0000
 Cl3_B_n31 Cl1-   -0.237100   -0.160900    0.297613    2.000000 Uiso  1.0000
 Cl4_B_n31 Cl1-   -0.237100    0.160900    0.297613    2.000000 Uiso  1.0000
 Cl5_B_n31 Cl1-    0.237100   -0.160900    0.302387    2.000000 Uiso  1.0000
 Cl6_B_n31 Cl1-    0.237100    0.160900    0.302387    2.000000 Uiso  1.0000
 Li1a_B_n31 Li+    0.000000    0.334700    0.300000    2.000000 Uiso  1.0000
 Li1b_B_n31 Li+    0.000000    0.665300    0.300000    2.000000 Uiso  1.0000
 Li2a_B_n31 Li+    0.500000    0.169000    0.300000    2.000000 Uiso  0.3650
 Li2b_B_n31 Li+    0.500000    0.831000    0.300000    2.000000 Uiso  0.3650
 Li3_B_n31 Li+    0.500000    0.500000    0.300000    2.000000 Uiso  0.2700
 Sc1_B_n32 Sc3+    0.000000    0.000000    0.310000    2.000000 Uiso  1.0000
 Cl1_B_n32 Cl1-    0.231300    0.000000    0.307579    2.000000 Uiso  1.0000
 Cl2_B_n32 Cl1-   -0.231300    0.000000    0.312421    2.000000 Uiso  1.0000
 Cl3_B_n32 Cl1-   -0.237100   -0.160900    0.307613    2.000000 Uiso  1.0000
 Cl4_B_n32 Cl1-   -0.237100    0.160900    0.307613    2.000000 Uiso  1.0000
 Cl5_B_n32 Cl1-    0.237100   -0.160900    0.312387    2.000000 Uiso  1.0000
 Cl6_B_n32 Cl1-    0.237100    0.160900    0.312387    2.000000 Uiso  1.0000
 Li1a_B_n32 Li+    0.000000    0.334700    0.310000    2.000000 Uiso  1.0000
 Li1b_B_n32 Li+    0.000000    0.665300    0.310000    2.000000 Uiso  1.0000
 Li2a_B_n32 Li+    0.500000    0.169000    0.310000    2.000000 Uiso  0.3650
 Li2b_B_n32 Li+    0.500000    0.831000    0.310000    2.000000 Uiso  0.3650
 Li3_B_n32 Li+    0.500000    0.500000    0.310000    2.000000 Uiso  0.2700
 Sc1_B_n33 Sc3+    0.000000    0.000000    0.320000    2.000000 Uiso  1.0000
 Cl1_B_n33 Cl1-    0.231300    0.000000    0.317579    2.000000 Uiso  1.0000
 Cl2_B_n33 Cl1-   -0.231300    0.000000    0.322421    2.000000 Uiso  1.0000
 Cl3_B_n33 Cl1-   -0.237100   -0.160900    0.317613    2.000000 Uiso  1.0000
 Cl4_B_n33 Cl1-   -0.237100    0.160900    0.317613    2.000000 Uiso  1.0000
 Cl5_B_n33 Cl1-    0.237100   -0.160900    0.322387    2.000000 Uiso  1.0000
 Cl6_B_n33 Cl1-    0.237100    0.160900    0.322387    2.000000 Uiso  1.0000
 Li1a_B_n33 Li+    0.000000    0.334700    0.320000    2.000000 Uiso  1.0000
 Li1b_B_n33 Li+    0.000000    0.665300    0.320000    2.000000 Uiso  1.0000
 Li2a_B_n33 Li+    0.500000    0.169000    0.320000    2.000000 Uiso  0.3650
 Li2b_B_n33 Li+    0.500000    0.831000    0.320000    2.000000 Uiso  0.3650
 Li3_B_n33 Li+    0.500000    0.500000    0.320000    2.000000 Uiso  0.2700
 Sc1_B_n34 Sc3+    0.000000    0.000000    0.330000    2.000000 Uiso  1.0000
 Cl1_B_n34 Cl1-    0.231300    0.000000    0.327579    2.000000 Uiso  1.0000
 Cl2_B_n34 Cl1-   -0.231300    0.000000    0.332421    2.000000 Uiso  1.0000
 Cl3_B_n34 Cl1-   -0.237100   -0.160900    0.327613    2.000000 Uiso  1.0000
 Cl4_B_n34 Cl1-   -0.237100    0.160900    0.327613    2.000000 Uiso  1.0000
 Cl5_B_n34 Cl1-    0.237100   -0.160900    0.332387    2.000000 Uiso  1.0000
 Cl6_B_n34 Cl1-    0.237100    0.160900    0.332387    2.000000 Uiso  1.0000
 Li1a_B_n34 Li+    0.000000    0.334700    0.330000    2.000000 Uiso  1.0000
 Li1b_B_n34 Li+    0.000000    0.665300    0.330000    2.000000 Uiso  1.0000
 Li2a_B_n34 Li+    0.500000    0.169000    0.330000    2.000000 Uiso  0.3650
 Li2b_B_n34 Li+    0.500000    0.831000    0.330000    2.000000 Uiso  0.3650
 Li3_B_n34 Li+    0.500000    0.500000    0.330000    2.000000 Uiso  0.2700
 Sc1_B_n35 Sc3+    0.000000    0.000000    0.340000    2.000000 Uiso  1.0000
 Cl1_B_n35 Cl1-    0.231300    0.000000    0.337579    2.000000 Uiso  1.0000
 Cl2_B_n35 Cl1-   -0.231300    0.000000    0.342421    2.000000 Uiso  1.0000
 Cl3_B_n35 Cl1-   -0.237100   -0.160900    0.337613    2.000000 Uiso  1.0000
 Cl4_B_n35 Cl1-   -0.237100    0.160900    0.337613    2.000000 Uiso  1.0000
 Cl5_B_n35 Cl1-    0.237100   -0.160900    0.342387    2.000000 Uiso  1.0000
 Cl6_B_n35 Cl1-    0.237100    0.160900    0.342387    2.000000 Uiso  1.0000
 Li1a_B_n35 Li+    0.000000    0.334700    0.340000    2.000000 Uiso  1.0000
 Li1b_B_n35 Li+    0.000000    0.665300    0.340000    2.000000 Uiso  1.0000
 Li2a_B_n35 Li+    0.500000    0.169000    0.340000    2.000000 Uiso  0.3650
 Li2b_B_n35 Li+    0.500000    0.831000    0.340000    2.000000 Uiso  0.3650
 Li3_B_n35 Li+    0.500000    0.500000    0.340000    2.000000 Uiso  0.2700
 Sc1_B_n36 Sc3+    0.000000    0.000000    0.350000    2.000000 Uiso  1.0000
 Cl1_B_n36 Cl1-    0.231300    0.000000    0.347579    2.000000 Uiso  1.0000
 Cl2_B_n36 Cl1-   -0.231300    0.000000    0.352421    2.000000 Uiso  1.0000
 Cl3_B_n36 Cl1-   -0.237100   -0.160900    0.347613    2.000000 Uiso  1.0000
 Cl4_B_n36 Cl1-   -0.237100    0.160900    0.347613    2.000000 Uiso  1.0000
 Cl5_B_n36 Cl1-    0.237100   -0.160900    0.352387    2.000000 Uiso  1.0000
 Cl6_B_n36 Cl1-    0.237100    0.160900    0.352387    2.000000 Uiso  1.0000
 Li1a_B_n36 Li+    0.000000    0.334700    0.350000    2.000000 Uiso  1.0000
 Li1b_B_n36 Li+    0.000000    0.665300    0.350000    2.000000 Uiso  1.0000
 Li2a_B_n36 Li+    0.500000    0.169000    0.350000    2.000000 Uiso  0.3650
 Li2b_B_n36 Li+    0.500000    0.831000    0.350000    2.000000 Uiso  0.3650
 Li3_B_n36 Li+    0.500000    0.500000    0.350000    2.000000 Uiso  0.2700
 Sc1_B_n37 Sc3+    0.000000    0.000000    0.360000    2.000000 Uiso  1.0000
 Cl1_B_n37 Cl1-    0.231300    0.000000    0.357579    2.000000 Uiso  1.0000
 Cl2_B_n37 Cl1-   -0.231300    0.000000    0.362421    2.000000 Uiso  1.0000
 Cl3_B_n37 Cl1-   -0.237100   -0.160900    0.357613    2.000000 Uiso  1.0000
 Cl4_B_n37 Cl1-   -0.237100    0.160900    0.357613    2.000000 Uiso  1.0000
 Cl5_B_n37 Cl1-    0.237100   -0.160900    0.362387    2.000000 Uiso  1.0000
 Cl6_B_n37 Cl1-    0.237100    0.160900    0.362387    2.000000 Uiso  1.0000
 Li1a_B_n37 Li+    0.000000    0.334700    0.360000    2.000000 Uiso  1.0000
 Li1b_B_n37 Li+    0.000000    0.665300    0.360000    2.000000 Uiso  1.0000
 Li2a_B_n37 Li+    0.500000    0.169000    0.360000    2.000000 Uiso  0.3650
 Li2b_B_n37 Li+    0.500000    0.831000    0.360000    2.000000 Uiso  0.3650
 Li3_B_n37 Li+    0.500000    0.500000    0.360000    2.000000 Uiso  0.2700
 Sc1_B_n38 Sc3+    0.000000    0.000000    0.370000    2.000000 Uiso  1.0000
 Cl1_B_n38 Cl1-    0.231300    0.000000    0.367579    2.000000 Uiso  1.0000
 Cl2_B_n38 Cl1-   -0.231300    0.000000    0.372421    2.000000 Uiso  1.0000
 Cl3_B_n38 Cl1-   -0.237100   -0.160900    0.367613    2.000000 Uiso  1.0000
 Cl4_B_n38 Cl1-   -0.237100    0.160900    0.367613    2.000000 Uiso  1.0000
 Cl5_B_n38 Cl1-    0.237100   -0.160900    0.372387    2.000000 Uiso  1.0000
 Cl6_B_n38 Cl1-    0.237100    0.160900    0.372387    2.000000 Uiso  1.0000
 Li1a_B_n38 Li+    0.000000    0.334700    0.370000    2.000000 Uiso  1.0000
 Li1b_B_n38 Li+    0.000000    0.665300    0.370000    2.000000 Uiso  1.0000
 Li2a_B_n38 Li+    0.500000    0.169000    0.370000    2.000000 Uiso  0.3650
 Li2b_B_n38 Li+    0.500000    0.831000    0.370000    2.000000 Uiso  0.3650
 Li3_B_n38 Li+    0.500000    0.500000    0.370000    2.000000 Uiso  0.2700
 Sc1_B_n39 Sc3+    0.000000    0.000000    0.380000    2.000000 Uiso  1.0000
 Cl1_B_n39 Cl1-    0.231300    0.000000    0.377579    2.000000 Uiso  1.0000
 Cl2_B_n39 Cl1-   -0.231300    0.000000    0.382421    2.000000 Uiso  1.0000
 Cl3_B_n39 Cl1-   -0.237100   -0.160900    0.377613    2.000000 Uiso  1.0000
 Cl4_B_n39 Cl1-   -0.237100    0.160900    0.377613    2.000000 Uiso  1.0000
 Cl5_B_n39 Cl1-    0.237100   -0.160900    0.382387    2.000000 Uiso  1.0000
 Cl6_B_n39 Cl1-    0.237100    0.160900    0.382387    2.000000 Uiso  1.0000
 Li1a_B_n39 Li+    0.000000    0.334700    0.380000    2.000000 Uiso  1.0000
 Li1b_B_n39 Li+    0.000000    0.665300    0.380000    2.000000 Uiso  1.0000
 Li2a_B_n39 Li+    0.500000    0.169000    0.380000    2.000000 Uiso  0.3650
 Li2b_B_n39 Li+    0.500000    0.831000    0.380000    2.000000 Uiso  0.3650
 Li3_B_n39 Li+    0.500000    0.500000    0.380000    2.000000 Uiso  0.2700
 Sc1_B_n40 Sc3+    0.000000    0.000000    0.390000    2.000000 Uiso  1.0000
 Cl1_B_n40 Cl1-    0.231300    0.000000    0.387579    2.000000 Uiso  1.0000
 Cl2_B_n40 Cl1-   -0.231300    0.000000    0.392421    2.000000 Uiso  1.0000
 Cl3_B_n40 Cl1-   -0.237100   -0.160900    0.387613    2.000000 Uiso  1.0000
 Cl4_B_n40 Cl1-   -0.237100    0.160900    0.387613    2.000000 Uiso  1.0000
 Cl5_B_n40 Cl1-    0.237100   -0.160900    0.392387    2.000000 Uiso  1.0000
 Cl6_B_n40 Cl1-    0.237100    0.160900    0.392387    2.000000 Uiso  1.0000
 Li1a_B_n40 Li+    0.000000    0.334700    0.390000    2.000000 Uiso  1.0000
 Li1b_B_n40 Li+    0.000000    0.665300    0.390000    2.000000 Uiso  1.0000
 Li2a_B_n40 Li+    0.500000    0.169000    0.390000    2.000000 Uiso  0.3650
 Li2b_B_n40 Li+    0.500000    0.831000    0.390000    2.000000 Uiso  0.3650
 Li3_B_n40 Li+    0.500000    0.500000    0.390000    2.000000 Uiso  0.2700
 Sc1_B_n41 Sc3+    0.000000    0.000000    0.400000    2.000000 Uiso  1.0000
 Cl1_B_n41 Cl1-    0.231300    0.000000    0.397579    2.000000 Uiso  1.0000
 Cl2_B_n41 Cl1-   -0.231300    0.000000    0.402421    2.000000 Uiso  1.0000
 Cl3_B_n41 Cl1-   -0.237100   -0.160900    0.397613    2.000000 Uiso  1.0000
 Cl4_B_n41 Cl1-   -0.237100    0.160900    0.397613    2.000000 Uiso  1.0000
 Cl5_B_n41 Cl1-    0.237100   -0.160900    0.402387    2.000000 Uiso  1.0000
 Cl6_B_n41 Cl1-    0.237100    0.160900    0.402387    2.000000 Uiso  1.0000
 Li1a_B_n41 Li+    0.000000    0.334700    0.400000    2.000000 Uiso  1.0000
 Li1b_B_n41 Li+    0.000000    0.665300    0.400000    2.000000 Uiso  1.0000
 Li2a_B_n41 Li+    0.500000    0.169000    0.400000    2.000000 Uiso  0.3650
 Li2b_B_n41 Li+    0.500000    0.831000    0.400000    2.000000 Uiso  0.3650
 Li3_B_n41 Li+    0.500000    0.500000    0.400000    2.000000 Uiso  0.2700
 Sc1_B_n42 Sc3+    0.000000    0.000000    0.410000    2.000000 Uiso  1.0000
 Cl1_B_n42 Cl1-    0.231300    0.000000    0.407579    2.000000 Uiso  1.0000
 Cl2_B_n42 Cl1-   -0.231300    0.000000    0.412421    2.000000 Uiso  1.0000
 Cl3_B_n42 Cl1-   -0.237100   -0.160900    0.407613    2.000000 Uiso  1.0000
 Cl4_B_n42 Cl1-   -0.237100    0.160900    0.407613    2.000000 Uiso  1.0000
 Cl5_B_n42 Cl1-    0.237100   -0.160900    0.412387    2.000000 Uiso  1.0000
 Cl6_B_n42 Cl1-    0.237100    0.160900    0.412387    2.000000 Uiso  1.0000
 Li1a_B_n42 Li+    0.000000    0.334700    0.410000    2.000000 Uiso  1.0000
 Li1b_B_n42 Li+    0.000000    0.665300    0.410000    2.000000 Uiso  1.0000
 Li2a_B_n42 Li+    0.500000    0.169000    0.410000    2.000000 Uiso  0.3650
 Li2b_B_n42 Li+    0.500000    0.831000    0.410000    2.000000 Uiso  0.3650
 Li3_B_n42 Li+    0.500000    0.500000    0.410000    2.000000 Uiso  0.2700
 Sc1_B_n43 Sc3+    0.000000    0.000000    0.420000    2.000000 Uiso  1.0000
 Cl1_B_n43 Cl1-    0.231300    0.000000    0.417579    2.000000 Uiso  1.0000
 Cl2_B_n43 Cl1-   -0.231300    0.000000    0.422421    2.000000 Uiso  1.0000
 Cl3_B_n43 Cl1-   -0.237100   -0.160900    0.417613    2.000000 Uiso  1.0000
 Cl4_B_n43 Cl1-   -0.237100    0.160900    0.417613    2.000000 Uiso  1.0000
 Cl5_B_n43 Cl1-    0.237100   -0.160900    0.422387    2.000000 Uiso  1.0000
 Cl6_B_n43 Cl1-    0.237100    0.160900    0.422387    2.000000 Uiso  1.0000
 Li1a_B_n43 Li+    0.000000    0.334700    0.420000    2.000000 Uiso  1.0000
 Li1b_B_n43 Li+    0.000000    0.665300    0.420000    2.000000 Uiso  1.0000
 Li2a_B_n43 Li+    0.500000    0.169000    0.420000    2.000000 Uiso  0.3650
 Li2b_B_n43 Li+    0.500000    0.831000    0.420000    2.000000 Uiso  0.3650
 Li3_B_n43 Li+    0.500000    0.500000    0.420000    2.000000 Uiso  0.2700
 Sc1_B_n44 Sc3+    0.000000    0.000000    0.430000    2.000000 Uiso  1.0000
 Cl1_B_n44 Cl1-    0.231300    0.000000    0.427579    2.000000 Uiso  1.0000
 Cl2_B_n44 Cl1-   -0.231300    0.000000    0.432421    2.000000 Uiso  1.0000
 Cl3_B_n44 Cl1-   -0.237100   -0.160900    0.427613    2.000000 Uiso  1.0000
 Cl4_B_n44 Cl1-   -0.237100    0.160900    0.427613    2.000000 Uiso  1.0000
 Cl5_B_n44 Cl1-    0.237100   -0.160900    0.432387    2.000000 Uiso  1.0000
 Cl6_B_n44 Cl1-    0.237100    0.160900    0.432387    2.000000 Uiso  1.0000
 Li1a_B_n44 Li+    0.000000    0.334700    0.430000    2.000000 Uiso  1.0000
 Li1b_B_n44 Li+    0.000000    0.665300    0.430000    2.000000 Uiso  1.0000
 Li2a_B_n44 Li+    0.500000    0.169000    0.430000    2.000000 Uiso  0.3650
 Li2b_B_n44 Li+    0.500000    0.831000    0.430000    2.000000 Uiso  0.3650
 Li3_B_n44 Li+    0.500000    0.500000    0.430000    2.000000 Uiso  0.2700
 Sc1_B_n45 Sc3+    0.000000    0.000000    0.440000    2.000000 Uiso  1.0000
 Cl1_B_n45 Cl1-    0.231300    0.000000    0.437579    2.000000 Uiso  1.0000
 Cl2_B_n45 Cl1-   -0.231300    0.000000    0.442421    2.000000 Uiso  1.0000
 Cl3_B_n45 Cl1-   -0.237100   -0.160900    0.437613    2.000000 Uiso  1.0000
 Cl4_B_n45 Cl1-   -0.237100    0.160900    0.437613    2.000000 Uiso  1.0000
 Cl5_B_n45 Cl1-    0.237100   -0.160900    0.442387    2.000000 Uiso  1.0000
 Cl6_B_n45 Cl1-    0.237100    0.160900    0.442387    2.000000 Uiso  1.0000
 Li1a_B_n45 Li+    0.000000    0.334700    0.440000    2.000000 Uiso  1.0000
 Li1b_B_n45 Li+    0.000000    0.665300    0.440000    2.000000 Uiso  1.0000
 Li2a_B_n45 Li+    0.500000    0.169000    0.440000    2.000000 Uiso  0.3650
 Li2b_B_n45 Li+    0.500000    0.831000    0.440000    2.000000 Uiso  0.3650
 Li3_B_n45 Li+    0.500000    0.500000    0.440000    2.000000 Uiso  0.2700
 Sc1_B_n46 Sc3+    0.000000    0.000000    0.450000    2.000000 Uiso  1.0000
 Cl1_B_n46 Cl1-    0.231300    0.000000    0.447579    2.000000 Uiso  1.0000
 Cl2_B_n46 Cl1-   -0.231300    0.000000    0.452421    2.000000 Uiso  1.0000
 Cl3_B_n46 Cl1-   -0.237100   -0.160900    0.447613    2.000000 Uiso  1.0000
 Cl4_B_n46 Cl1-   -0.237100    0.160900    0.447613    2.000000 Uiso  1.0000
 Cl5_B_n46 Cl1-    0.237100   -0.160900    0.452387    2.000000 Uiso  1.0000
 Cl6_B_n46 Cl1-    0.237100    0.160900    0.452387    2.000000 Uiso  1.0000
 Li1a_B_n46 Li+    0.000000    0.334700    0.450000    2.000000 Uiso  1.0000
 Li1b_B_n46 Li+    0.000000    0.665300    0.450000    2.000000 Uiso  1.0000
 Li2a_B_n46 Li+    0.500000    0.169000    0.450000    2.000000 Uiso  0.3650
 Li2b_B_n46 Li+    0.500000    0.831000    0.450000    2.000000 Uiso  0.3650
 Li3_B_n46 Li+    0.500000    0.500000    0.450000    2.000000 Uiso  0.2700
 Sc1_B_n47 Sc3+    0.000000    0.000000    0.460000    2.000000 Uiso  1.0000
 Cl1_B_n47 Cl1-    0.231300    0.000000    0.457579    2.000000 Uiso  1.0000
 Cl2_B_n47 Cl1-   -0.231300    0.000000    0.462421    2.000000 Uiso  1.0000
 Cl3_B_n47 Cl1-   -0.237100   -0.160900    0.457613    2.000000 Uiso  1.0000
 Cl4_B_n47 Cl1-   -0.237100    0.160900    0.457613    2.000000 Uiso  1.0000
 Cl5_B_n47 Cl1-    0.237100   -0.160900    0.462387    2.000000 Uiso  1.0000
 Cl6_B_n47 Cl1-    0.237100    0.160900    0.462387    2.000000 Uiso  1.0000
 Li1a_B_n47 Li+    0.000000    0.334700    0.460000    2.000000 Uiso  1.0000
 Li1b_B_n47 Li+    0.000000    0.665300    0.460000    2.000000 Uiso  1.0000
 Li2a_B_n47 Li+    0.500000    0.169000    0.460000    2.000000 Uiso  0.3650
 Li2b_B_n47 Li+    0.500000    0.831000    0.460000    2.000000 Uiso  0.3650
 Li3_B_n47 Li+    0.500000    0.500000    0.460000    2.000000 Uiso  0.2700
 Sc1_B_n48 Sc3+    0.000000    0.000000    0.470000    2.000000 Uiso  1.0000
 Cl1_B_n48 Cl1-    0.231300    0.000000    0.467579    2.000000 Uiso  1.0000
 Cl2_B_n48 Cl1-   -0.231300    0.000000    0.472421    2.000000 Uiso  1.0000
 Cl3_B_n48 Cl1-   -0.237100   -0.160900    0.467613    2.000000 Uiso  1.0000
 Cl4_B_n48 Cl1-   -0.237100    0.160900    0.467613    2.000000 Uiso  1.0000
 Cl5_B_n48 Cl1-    0.237100   -0.160900    0.472387    2.000000 Uiso  1.0000
 Cl6_B_n48 Cl1-    0.237100    0.160900    0.472387    2.000000 Uiso  1.0000
 Li1a_B_n48 Li+    0.000000    0.334700    0.470000    2.000000 Uiso  1.0000
 Li1b_B_n48 Li+    0.000000    0.665300    0.470000    2.000000 Uiso  1.0000
 Li2a_B_n48 Li+    0.500000    0.169000    0.470000    2.000000 Uiso  0.3650
 Li2b_B_n48 Li+    0.500000    0.831000    0.470000    2.000000 Uiso  0.3650
 Li3_B_n48 Li+    0.500000    0.500000    0.470000    2.000000 Uiso  0.2700
 Sc1_B_n49 Sc3+    0.000000    0.000000    0.480000    2.000000 Uiso  1.0000
 Cl1_B_n49 Cl1-    0.231300    0.000000    0.477579    2.000000 Uiso  1.0000
 Cl2_B_n49 Cl1-   -0.231300    0.000000    0.482421    2.000000 Uiso  1.0000
 Cl3_B_n49 Cl1-   -0.237100   -0.160900    0.477613    2.000000 Uiso  1.0000
 Cl4_B_n49 Cl1-   -0.237100    0.160900    0.477613    2.000000 Uiso  1.0000
 Cl5_B_n49 Cl1-    0.237100   -0.160900    0.482387    2.000000 Uiso  1.0000
 Cl6_B_n49 Cl1-    0.237100    0.160900    0.482387    2.000000 Uiso  1.0000
 Li1a_B_n49 Li+    0.000000    0.334700    0.480000    2.000000 Uiso  1.0000
 Li1b_B_n49 Li+    0.000000    0.665300    0.480000    2.000000 Uiso  1.0000
 Li2a_B_n49 Li+    0.500000    0.169000    0.480000    2.000000 Uiso  0.3650
 Li2b_B_n49 Li+    0.500000    0.831000    0.480000    2.000000 Uiso  0.3650
 Li3_B_n49 Li+    0.500000    0.500000    0.480000    2.000000 Uiso  0.2700
 Sc1_B_n50 Sc3+    0.000000    0.000000    0.490000    2.000000 Uiso  1.0000
 Cl1_B_n50 Cl1-    0.231300    0.000000    0.487579    2.000000 Uiso  1.0000
 Cl2_B_n50 Cl1-   -0.231300    0.000000    0.492421    2.000000 Uiso  1.0000
 Cl3_B_n50 Cl1-   -0.237100   -0.160900    0.487613    2.000000 Uiso  1.0000
 Cl4_B_n50 Cl1-   -0.237100    0.160900    0.487613    2.000000 Uiso  1.0000
 Cl5_B_n50 Cl1-    0.237100   -0.160900    0.492387    2.000000 Uiso  1.0000
 Cl6_B_n50 Cl1-    0.237100    0.160900    0.492387    2.000000 Uiso  1.0000
 Li1a_B_n50 Li+    0.000000    0.334700    0.490000    2.000000 Uiso  1.0000
 Li1b_B_n50 Li+    0.000000    0.665300    0.490000    2.000000 Uiso  1.0000
 Li2a_B_n50 Li+    0.500000    0.169000    0.490000    2.000000 Uiso  0.3650
 Li2b_B_n50 Li+    0.500000    0.831000    0.490000    2.000000 Uiso  0.3650
 Li3_B_n50 Li+    0.500000    0.500000    0.490000    2.000000 Uiso  0.2700
 Sc1_B_n51 Sc3+    0.000000    0.000000    0.500000    2.000000 Uiso  1.0000
 Cl1_B_n51 Cl1-    0.231300    0.000000    0.497579    2.000000 Uiso  1.0000
 Cl2_B_n51 Cl1-   -0.231300    0.000000    0.502421    2.000000 Uiso  1.0000
 Cl3_B_n51 Cl1-   -0.237100   -0.160900    0.497613    2.000000 Uiso  1.0000
 Cl4_B_n51 Cl1-   -0.237100    0.160900    0.497613    2.000000 Uiso  1.0000
 Cl5_B_n51 Cl1-    0.237100   -0.160900    0.502387    2.000000 Uiso  1.0000
 Cl6_B_n51 Cl1-    0.237100    0.160900    0.502387    2.000000 Uiso  1.0000
 Li1a_B_n51 Li+    0.000000    0.334700    0.500000    2.000000 Uiso  1.0000
 Li1b_B_n51 Li+    0.000000    0.665300    0.500000    2.000000 Uiso  1.0000
 Li2a_B_n51 Li+    0.500000    0.169000    0.500000    2.000000 Uiso  0.3650
 Li2b_B_n51 Li+    0.500000    0.831000    0.500000    2.000000 Uiso  0.3650
 Li3_B_n51 Li+    0.500000    0.500000    0.500000    2.000000 Uiso  0.2700
 Sc1_B_n52 Sc3+    0.000000    0.000000    0.510000    2.000000 Uiso  1.0000
 Cl1_B_n52 Cl1-    0.231300    0.000000    0.507579    2.000000 Uiso  1.0000
 Cl2_B_n52 Cl1-   -0.231300    0.000000    0.512421    2.000000 Uiso  1.0000
 Cl3_B_n52 Cl1-   -0.237100   -0.160900    0.507613    2.000000 Uiso  1.0000
 Cl4_B_n52 Cl1-   -0.237100    0.160900    0.507613    2.000000 Uiso  1.0000
 Cl5_B_n52 Cl1-    0.237100   -0.160900    0.512387    2.000000 Uiso  1.0000
 Cl6_B_n52 Cl1-    0.237100    0.160900    0.512387    2.000000 Uiso  1.0000
 Li1a_B_n52 Li+    0.000000    0.334700    0.510000    2.000000 Uiso  1.0000
 Li1b_B_n52 Li+    0.000000    0.665300    0.510000    2.000000 Uiso  1.0000
 Li2a_B_n52 Li+    0.500000    0.169000    0.510000    2.000000 Uiso  0.3650
 Li2b_B_n52 Li+    0.500000    0.831000    0.510000    2.000000 Uiso  0.3650
 Li3_B_n52 Li+    0.500000    0.500000    0.510000    2.000000 Uiso  0.2700
 Sc1_B_n53 Sc3+    0.000000    0.000000    0.520000    2.000000 Uiso  1.0000
 Cl1_B_n53 Cl1-    0.231300    0.000000    0.517579    2.000000 Uiso  1.0000
 Cl2_B_n53 Cl1-   -0.231300    0.000000    0.522421    2.000000 Uiso  1.0000
 Cl3_B_n53 Cl1-   -0.237100   -0.160900    0.517613    2.000000 Uiso  1.0000
 Cl4_B_n53 Cl1-   -0.237100    0.160900    0.517613    2.000000 Uiso  1.0000
 Cl5_B_n53 Cl1-    0.237100   -0.160900    0.522387    2.000000 Uiso  1.0000
 Cl6_B_n53 Cl1-    0.237100    0.160900    0.522387    2.000000 Uiso  1.0000
 Li1a_B_n53 Li+    0.000000    0.334700    0.520000    2.000000 Uiso  1.0000
 Li1b_B_n53 Li+    0.000000    0.665300    0.520000    2.000000 Uiso  1.0000
 Li2a_B_n53 Li+    0.500000    0.169000    0.520000    2.000000 Uiso  0.3650
 Li2b_B_n53 Li+    0.500000    0.831000    0.520000    2.000000 Uiso  0.3650
 Li3_B_n53 Li+    0.500000    0.500000    0.520000    2.000000 Uiso  0.2700
 Sc1_B_n54 Sc3+    0.000000    0.000000    0.530000    2.000000 Uiso  1.0000
 Cl1_B_n54 Cl1-    0.231300    0.000000    0.527579    2.000000 Uiso  1.0000
 Cl2_B_n54 Cl1-   -0.231300    0.000000    0.532421    2.000000 Uiso  1.0000
 Cl3_B_n54 Cl1-   -0.237100   -0.160900    0.527613    2.000000 Uiso  1.0000
 Cl4_B_n54 Cl1-   -0.237100    0.160900    0.527613    2.000000 Uiso  1.0000
 Cl5_B_n54 Cl1-    0.237100   -0.160900    0.532387    2.000000 Uiso  1.0000
 Cl6_B_n54 Cl1-    0.237100    0.160900    0.532387    2.000000 Uiso  1.0000
 Li1a_B_n54 Li+    0.000000    0.334700    0.530000    2.000000 Uiso  1.0000
 Li1b_B_n54 Li+    0.000000    0.665300    0.530000    2.000000 Uiso  1.0000
 Li2a_B_n54 Li+    0.500000    0.169000    0.530000    2.000000 Uiso  0.3650
 Li2b_B_n54 Li+    0.500000    0.831000    0.530000    2.000000 Uiso  0.3650
 Li3_B_n54 Li+    0.500000    0.500000    0.530000    2.000000 Uiso  0.2700
 Sc1_B_n55 Sc3+    0.000000    0.000000    0.540000    2.000000 Uiso  1.0000
 Cl1_B_n55 Cl1-    0.231300    0.000000    0.537579    2.000000 Uiso  1.0000
 Cl2_B_n55 Cl1-   -0.231300    0.000000    0.542421    2.000000 Uiso  1.0000
 Cl3_B_n55 Cl1-   -0.237100   -0.160900    0.537613    2.000000 Uiso  1.0000
 Cl4_B_n55 Cl1-   -0.237100    0.160900    0.537613    2.000000 Uiso  1.0000
 Cl5_B_n55 Cl1-    0.237100   -0.160900    0.542387    2.000000 Uiso  1.0000
 Cl6_B_n55 Cl1-    0.237100    0.160900    0.542387    2.000000 Uiso  1.0000
 Li1a_B_n55 Li+    0.000000    0.334700    0.540000    2.000000 Uiso  1.0000
 Li1b_B_n55 Li+    0.000000    0.665300    0.540000    2.000000 Uiso  1.0000
 Li2a_B_n55 Li+    0.500000    0.169000    0.540000    2.000000 Uiso  0.3650
 Li2b_B_n55 Li+    0.500000    0.831000    0.540000    2.000000 Uiso  0.3650
 Li3_B_n55 Li+    0.500000    0.500000    0.540000    2.000000 Uiso  0.2700
 Sc1_B_n56 Sc3+    0.000000    0.000000    0.550000    2.000000 Uiso  1.0000
 Cl1_B_n56 Cl1-    0.231300    0.000000    0.547579    2.000000 Uiso  1.0000
 Cl2_B_n56 Cl1-   -0.231300    0.000000    0.552421    2.000000 Uiso  1.0000
 Cl3_B_n56 Cl1-   -0.237100   -0.160900    0.547613    2.000000 Uiso  1.0000
 Cl4_B_n56 Cl1-   -0.237100    0.160900    0.547613    2.000000 Uiso  1.0000
 Cl5_B_n56 Cl1-    0.237100   -0.160900    0.552387    2.000000 Uiso  1.0000
 Cl6_B_n56 Cl1-    0.237100    0.160900    0.552387    2.000000 Uiso  1.0000
 Li1a_B_n56 Li+    0.000000    0.334700    0.550000    2.000000 Uiso  1.0000
 Li1b_B_n56 Li+    0.000000    0.665300    0.550000    2.000000 Uiso  1.0000
 Li2a_B_n56 Li+    0.500000    0.169000    0.550000    2.000000 Uiso  0.3650
 Li2b_B_n56 Li+    0.500000    0.831000    0.550000    2.000000 Uiso  0.3650
 Li3_B_n56 Li+    0.500000    0.500000    0.550000    2.000000 Uiso  0.2700
 Sc1_B_n57 Sc3+    0.000000    0.000000    0.560000    2.000000 Uiso  1.0000
 Cl1_B_n57 Cl1-    0.231300    0.000000    0.557579    2.000000 Uiso  1.0000
 Cl2_B_n57 Cl1-   -0.231300    0.000000    0.562421    2.000000 Uiso  1.0000
 Cl3_B_n57 Cl1-   -0.237100   -0.160900    0.557613    2.000000 Uiso  1.0000
 Cl4_B_n57 Cl1-   -0.237100    0.160900    0.557613    2.000000 Uiso  1.0000
 Cl5_B_n57 Cl1-    0.237100   -0.160900    0.562387    2.000000 Uiso  1.0000
 Cl6_B_n57 Cl1-    0.237100    0.160900    0.562387    2.000000 Uiso  1.0000
 Li1a_B_n57 Li+    0.000000    0.334700    0.560000    2.000000 Uiso  1.0000
 Li1b_B_n57 Li+    0.000000    0.665300    0.560000    2.000000 Uiso  1.0000
 Li2a_B_n57 Li+    0.500000    0.169000    0.560000    2.000000 Uiso  0.3650
 Li2b_B_n57 Li+    0.500000    0.831000    0.560000    2.000000 Uiso  0.3650
 Li3_B_n57 Li+    0.500000    0.500000    0.560000    2.000000 Uiso  0.2700
 Sc1_B_n58 Sc3+    0.000000    0.000000    0.570000    2.000000 Uiso  1.0000
 Cl1_B_n58 Cl1-    0.231300    0.000000    0.567579    2.000000 Uiso  1.0000
 Cl2_B_n58 Cl1-   -0.231300    0.000000    0.572421    2.000000 Uiso  1.0000
 Cl3_B_n58 Cl1-   -0.237100   -0.160900    0.567613    2.000000 Uiso  1.0000
 Cl4_B_n58 Cl1-   -0.237100    0.160900    0.567613    2.000000 Uiso  1.0000
 Cl5_B_n58 Cl1-    0.237100   -0.160900    0.572387    2.000000 Uiso  1.0000
 Cl6_B_n58 Cl1-    0.237100    0.160900    0.572387    2.000000 Uiso  1.0000
 Li1a_B_n58 Li+    0.000000    0.334700    0.570000    2.000000 Uiso  1.0000
 Li1b_B_n58 Li+    0.000000    0.665300    0.570000    2.000000 Uiso  1.0000
 Li2a_B_n58 Li+    0.500000    0.169000    0.570000    2.000000 Uiso  0.3650
 Li2b_B_n58 Li+    0.500000    0.831000    0.570000    2.000000 Uiso  0.3650
 Li3_B_n58 Li+    0.500000    0.500000    0.570000    2.000000 Uiso  0.2700
 Sc1_B_n59 Sc3+    0.000000    0.000000    0.580000    2.000000 Uiso  1.0000
 Cl1_B_n59 Cl1-    0.231300    0.000000    0.577579    2.000000 Uiso  1.0000
 Cl2_B_n59 Cl1-   -0.231300    0.000000    0.582421    2.000000 Uiso  1.0000
 Cl3_B_n59 Cl1-   -0.237100   -0.160900    0.577613    2.000000 Uiso  1.0000
 Cl4_B_n59 Cl1-   -0.237100    0.160900    0.577613    2.000000 Uiso  1.0000
 Cl5_B_n59 Cl1-    0.237100   -0.160900    0.582387    2.000000 Uiso  1.0000
 Cl6_B_n59 Cl1-    0.237100    0.160900    0.582387    2.000000 Uiso  1.0000
 Li1a_B_n59 Li+    0.000000    0.334700    0.580000    2.000000 Uiso  1.0000
 Li1b_B_n59 Li+    0.000000    0.665300    0.580000    2.000000 Uiso  1.0000
 Li2a_B_n59 Li+    0.500000    0.169000    0.580000    2.000000 Uiso  0.3650
 Li2b_B_n59 Li+    0.500000    0.831000    0.580000    2.000000 Uiso  0.3650
 Li3_B_n59 Li+    0.500000    0.500000    0.580000    2.000000 Uiso  0.2700
 Sc1_B_n60 Sc3+    0.000000    0.000000    0.590000    2.000000 Uiso  1.0000
 Cl1_B_n60 Cl1-    0.231300    0.000000    0.587579    2.000000 Uiso  1.0000
 Cl2_B_n60 Cl1-   -0.231300    0.000000    0.592421    2.000000 Uiso  1.0000
 Cl3_B_n60 Cl1-   -0.237100   -0.160900    0.587613    2.000000 Uiso  1.0000
 Cl4_B_n60 Cl1-   -0.237100    0.160900    0.587613    2.000000 Uiso  1.0000
 Cl5_B_n60 Cl1-    0.237100   -0.160900    0.592387    2.000000 Uiso  1.0000
 Cl6_B_n60 Cl1-    0.237100    0.160900    0.592387    2.000000 Uiso  1.0000
 Li1a_B_n60 Li+    0.000000    0.334700    0.590000    2.000000 Uiso  1.0000
 Li1b_B_n60 Li+    0.000000    0.665300    0.590000    2.000000 Uiso  1.0000
 Li2a_B_n60 Li+    0.500000    0.169000    0.590000    2.000000 Uiso  0.3650
 Li2b_B_n60 Li+    0.500000    0.831000    0.590000    2.000000 Uiso  0.3650
 Li3_B_n60 Li+    0.500000    0.500000    0.590000    2.000000 Uiso  0.2700
 Sc1_B_n61 Sc3+    0.000000    0.000000    0.600000    2.000000 Uiso  1.0000
 Cl1_B_n61 Cl1-    0.231300    0.000000    0.597579    2.000000 Uiso  1.0000
 Cl2_B_n61 Cl1-   -0.231300    0.000000    0.602421    2.000000 Uiso  1.0000
 Cl3_B_n61 Cl1-   -0.237100   -0.160900    0.597613    2.000000 Uiso  1.0000
 Cl4_B_n61 Cl1-   -0.237100    0.160900    0.597613    2.000000 Uiso  1.0000
 Cl5_B_n61 Cl1-    0.237100   -0.160900    0.602387    2.000000 Uiso  1.0000
 Cl6_B_n61 Cl1-    0.237100    0.160900    0.602387    2.000000 Uiso  1.0000
 Li1a_B_n61 Li+    0.000000    0.334700    0.600000    2.000000 Uiso  1.0000
 Li1b_B_n61 Li+    0.000000    0.665300    0.600000    2.000000 Uiso  1.0000
 Li2a_B_n61 Li+    0.500000    0.169000    0.600000    2.000000 Uiso  0.3650
 Li2b_B_n61 Li+    0.500000    0.831000    0.600000    2.000000 Uiso  0.3650
 Li3_B_n61 Li+    0.500000    0.500000    0.600000    2.000000 Uiso  0.2700
 Sc1_B_n62 Sc3+    0.000000    0.000000    0.610000    2.000000 Uiso  1.0000
 Cl1_B_n62 Cl1-    0.231300    0.000000    0.607579    2.000000 Uiso  1.0000
 Cl2_B_n62 Cl1-   -0.231300    0.000000    0.612421    2.000000 Uiso  1.0000
 Cl3_B_n62 Cl1-   -0.237100   -0.160900    0.607613    2.000000 Uiso  1.0000
 Cl4_B_n62 Cl1-   -0.237100    0.160900    0.607613    2.000000 Uiso  1.0000
 Cl5_B_n62 Cl1-    0.237100   -0.160900    0.612387    2.000000 Uiso  1.0000
 Cl6_B_n62 Cl1-    0.237100    0.160900    0.612387    2.000000 Uiso  1.0000
 Li1a_B_n62 Li+    0.000000    0.334700    0.610000    2.000000 Uiso  1.0000
 Li1b_B_n62 Li+    0.000000    0.665300    0.610000    2.000000 Uiso  1.0000
 Li2a_B_n62 Li+    0.500000    0.169000    0.610000    2.000000 Uiso  0.3650
 Li2b_B_n62 Li+    0.500000    0.831000    0.610000    2.000000 Uiso  0.3650
 Li3_B_n62 Li+    0.500000    0.500000    0.610000    2.000000 Uiso  0.2700
 Sc1_B_n63 Sc3+    0.000000    0.000000    0.620000    2.000000 Uiso  1.0000
 Cl1_B_n63 Cl1-    0.231300    0.000000    0.617579    2.000000 Uiso  1.0000
 Cl2_B_n63 Cl1-   -0.231300    0.000000    0.622421    2.000000 Uiso  1.0000
 Cl3_B_n63 Cl1-   -0.237100   -0.160900    0.617613    2.000000 Uiso  1.0000
 Cl4_B_n63 Cl1-   -0.237100    0.160900    0.617613    2.000000 Uiso  1.0000
 Cl5_B_n63 Cl1-    0.237100   -0.160900    0.622387    2.000000 Uiso  1.0000
 Cl6_B_n63 Cl1-    0.237100    0.160900    0.622387    2.000000 Uiso  1.0000
 Li1a_B_n63 Li+    0.000000    0.334700    0.620000    2.000000 Uiso  1.0000
 Li1b_B_n63 Li+    0.000000    0.665300    0.620000    2.000000 Uiso  1.0000
 Li2a_B_n63 Li+    0.500000    0.169000    0.620000    2.000000 Uiso  0.3650
 Li2b_B_n63 Li+    0.500000    0.831000    0.620000    2.000000 Uiso  0.3650
 Li3_B_n63 Li+    0.500000    0.500000    0.620000    2.000000 Uiso  0.2700
 Sc1_B_n64 Sc3+    0.000000    0.000000    0.630000    2.000000 Uiso  1.0000
 Cl1_B_n64 Cl1-    0.231300    0.000000    0.627579    2.000000 Uiso  1.0000
 Cl2_B_n64 Cl1-   -0.231300    0.000000    0.632421    2.000000 Uiso  1.0000
 Cl3_B_n64 Cl1-   -0.237100   -0.160900    0.627613    2.000000 Uiso  1.0000
 Cl4_B_n64 Cl1-   -0.237100    0.160900    0.627613    2.000000 Uiso  1.0000
 Cl5_B_n64 Cl1-    0.237100   -0.160900    0.632387    2.000000 Uiso  1.0000
 Cl6_B_n64 Cl1-    0.237100    0.160900    0.632387    2.000000 Uiso  1.0000
 Li1a_B_n64 Li+    0.000000    0.334700    0.630000    2.000000 Uiso  1.0000
 Li1b_B_n64 Li+    0.000000    0.665300    0.630000    2.000000 Uiso  1.0000
 Li2a_B_n64 Li+    0.500000    0.169000    0.630000    2.000000 Uiso  0.3650
 Li2b_B_n64 Li+    0.500000    0.831000    0.630000    2.000000 Uiso  0.3650
 Li3_B_n64 Li+    0.500000    0.500000    0.630000    2.000000 Uiso  0.2700
 Sc1_B_n65 Sc3+    0.000000    0.000000    0.640000    2.000000 Uiso  1.0000
 Cl1_B_n65 Cl1-    0.231300    0.000000    0.637579    2.000000 Uiso  1.0000
 Cl2_B_n65 Cl1-   -0.231300    0.000000    0.642421    2.000000 Uiso  1.0000
 Cl3_B_n65 Cl1-   -0.237100   -0.160900    0.637613    2.000000 Uiso  1.0000
 Cl4_B_n65 Cl1-   -0.237100    0.160900    0.637613    2.000000 Uiso  1.0000
 Cl5_B_n65 Cl1-    0.237100   -0.160900    0.642387    2.000000 Uiso  1.0000
 Cl6_B_n65 Cl1-    0.237100    0.160900    0.642387    2.000000 Uiso  1.0000
 Li1a_B_n65 Li+    0.000000    0.334700    0.640000    2.000000 Uiso  1.0000
 Li1b_B_n65 Li+    0.000000    0.665300    0.640000    2.000000 Uiso  1.0000
 Li2a_B_n65 Li+    0.500000    0.169000    0.640000    2.000000 Uiso  0.3650
 Li2b_B_n65 Li+    0.500000    0.831000    0.640000    2.000000 Uiso  0.3650
 Li3_B_n65 Li+    0.500000    0.500000    0.640000    2.000000 Uiso  0.2700
 Sc1_B_n66 Sc3+    0.000000    0.000000    0.650000    2.000000 Uiso  1.0000
 Cl1_B_n66 Cl1-    0.231300    0.000000    0.647579    2.000000 Uiso  1.0000
 Cl2_B_n66 Cl1-   -0.231300    0.000000    0.652421    2.000000 Uiso  1.0000
 Cl3_B_n66 Cl1-   -0.237100   -0.160900    0.647613    2.000000 Uiso  1.0000
 Cl4_B_n66 Cl1-   -0.237100    0.160900    0.647613    2.000000 Uiso  1.0000
 Cl5_B_n66 Cl1-    0.237100   -0.160900    0.652387    2.000000 Uiso  1.0000
 Cl6_B_n66 Cl1-    0.237100    0.160900    0.652387    2.000000 Uiso  1.0000
 Li1a_B_n66 Li+    0.000000    0.334700    0.650000    2.000000 Uiso  1.0000
 Li1b_B_n66 Li+    0.000000    0.665300    0.650000    2.000000 Uiso  1.0000
 Li2a_B_n66 Li+    0.500000    0.169000    0.650000    2.000000 Uiso  0.3650
 Li2b_B_n66 Li+    0.500000    0.831000    0.650000    2.000000 Uiso  0.3650
 Li3_B_n66 Li+    0.500000    0.500000    0.650000    2.000000 Uiso  0.2700
 Sc1_B_n67 Sc3+    0.000000    0.000000    0.660000    2.000000 Uiso  1.0000
 Cl1_B_n67 Cl1-    0.231300    0.000000    0.657579    2.000000 Uiso  1.0000
 Cl2_B_n67 Cl1-   -0.231300    0.000000    0.662421    2.000000 Uiso  1.0000
 Cl3_B_n67 Cl1-   -0.237100   -0.160900    0.657613    2.000000 Uiso  1.0000
 Cl4_B_n67 Cl1-   -0.237100    0.160900    0.657613    2.000000 Uiso  1.0000
 Cl5_B_n67 Cl1-    0.237100   -0.160900    0.662387    2.000000 Uiso  1.0000
 Cl6_B_n67 Cl1-    0.237100    0.160900    0.662387    2.000000 Uiso  1.0000
 Li1a_B_n67 Li+    0.000000    0.334700    0.660000    2.000000 Uiso  1.0000
 Li1b_B_n67 Li+    0.000000    0.665300    0.660000    2.000000 Uiso  1.0000
 Li2a_B_n67 Li+    0.500000    0.169000    0.660000    2.000000 Uiso  0.3650
 Li2b_B_n67 Li+    0.500000    0.831000    0.660000    2.000000 Uiso  0.3650
 Li3_B_n67 Li+    0.500000    0.500000    0.660000    2.000000 Uiso  0.2700
 Sc1_B_n68 Sc3+    0.000000    0.000000    0.670000    2.000000 Uiso  1.0000
 Cl1_B_n68 Cl1-    0.231300    0.000000    0.667579    2.000000 Uiso  1.0000
 Cl2_B_n68 Cl1-   -0.231300    0.000000    0.672421    2.000000 Uiso  1.0000
 Cl3_B_n68 Cl1-   -0.237100   -0.160900    0.667613    2.000000 Uiso  1.0000
 Cl4_B_n68 Cl1-   -0.237100    0.160900    0.667613    2.000000 Uiso  1.0000
 Cl5_B_n68 Cl1-    0.237100   -0.160900    0.672387    2.000000 Uiso  1.0000
 Cl6_B_n68 Cl1-    0.237100    0.160900    0.672387    2.000000 Uiso  1.0000
 Li1a_B_n68 Li+    0.000000    0.334700    0.670000    2.000000 Uiso  1.0000
 Li1b_B_n68 Li+    0.000000    0.665300    0.670000    2.000000 Uiso  1.0000
 Li2a_B_n68 Li+    0.500000    0.169000    0.670000    2.000000 Uiso  0.3650
 Li2b_B_n68 Li+    0.500000    0.831000    0.670000    2.000000 Uiso  0.3650
 Li3_B_n68 Li+    0.500000    0.500000    0.670000    2.000000 Uiso  0.2700
 Sc1_B_n69 Sc3+    0.000000    0.000000    0.680000    2.000000 Uiso  1.0000
 Cl1_B_n69 Cl1-    0.231300    0.000000    0.677579    2.000000 Uiso  1.0000
 Cl2_B_n69 Cl1-   -0.231300    0.000000    0.682421    2.000000 Uiso  1.0000
 Cl3_B_n69 Cl1-   -0.237100   -0.160900    0.677613    2.000000 Uiso  1.0000
 Cl4_B_n69 Cl1-   -0.237100    0.160900    0.677613    2.000000 Uiso  1.0000
 Cl5_B_n69 Cl1-    0.237100   -0.160900    0.682387    2.000000 Uiso  1.0000
 Cl6_B_n69 Cl1-    0.237100    0.160900    0.682387    2.000000 Uiso  1.0000
 Li1a_B_n69 Li+    0.000000    0.334700    0.680000    2.000000 Uiso  1.0000
 Li1b_B_n69 Li+    0.000000    0.665300    0.680000    2.000000 Uiso  1.0000
 Li2a_B_n69 Li+    0.500000    0.169000    0.680000    2.000000 Uiso  0.3650
 Li2b_B_n69 Li+    0.500000    0.831000    0.680000    2.000000 Uiso  0.3650
 Li3_B_n69 Li+    0.500000    0.500000    0.680000    2.000000 Uiso  0.2700
 Sc1_B_n70 Sc3+    0.000000    0.000000    0.690000    2.000000 Uiso  1.0000
 Cl1_B_n70 Cl1-    0.231300    0.000000    0.687579    2.000000 Uiso  1.0000
 Cl2_B_n70 Cl1-   -0.231300    0.000000    0.692421    2.000000 Uiso  1.0000
 Cl3_B_n70 Cl1-   -0.237100   -0.160900    0.687613    2.000000 Uiso  1.0000
 Cl4_B_n70 Cl1-   -0.237100    0.160900    0.687613    2.000000 Uiso  1.0000
 Cl5_B_n70 Cl1-    0.237100   -0.160900    0.692387    2.000000 Uiso  1.0000
 Cl6_B_n70 Cl1-    0.237100    0.160900    0.692387    2.000000 Uiso  1.0000
 Li1a_B_n70 Li+    0.000000    0.334700    0.690000    2.000000 Uiso  1.0000
 Li1b_B_n70 Li+    0.000000    0.665300    0.690000    2.000000 Uiso  1.0000
 Li2a_B_n70 Li+    0.500000    0.169000    0.690000    2.000000 Uiso  0.3650
 Li2b_B_n70 Li+    0.500000    0.831000    0.690000    2.000000 Uiso  0.3650
 Li3_B_n70 Li+    0.500000    0.500000    0.690000    2.000000 Uiso  0.2700
 Sc1_B_n71 Sc3+    0.000000    0.000000    0.700000    2.000000 Uiso  1.0000
 Cl1_B_n71 Cl1-    0.231300    0.000000    0.697579    2.000000 Uiso  1.0000
 Cl2_B_n71 Cl1-   -0.231300    0.000000    0.702421    2.000000 Uiso  1.0000
 Cl3_B_n71 Cl1-   -0.237100   -0.160900    0.697613    2.000000 Uiso  1.0000
 Cl4_B_n71 Cl1-   -0.237100    0.160900    0.697613    2.000000 Uiso  1.0000
 Cl5_B_n71 Cl1-    0.237100   -0.160900    0.702387    2.000000 Uiso  1.0000
 Cl6_B_n71 Cl1-    0.237100    0.160900    0.702387    2.000000 Uiso  1.0000
 Li1a_B_n71 Li+    0.000000    0.334700    0.700000    2.000000 Uiso  1.0000
 Li1b_B_n71 Li+    0.000000    0.665300    0.700000    2.000000 Uiso  1.0000
 Li2a_B_n71 Li+    0.500000    0.169000    0.700000    2.000000 Uiso  0.3650
 Li2b_B_n71 Li+    0.500000    0.831000    0.700000    2.000000 Uiso  0.3650
 Li3_B_n71 Li+    0.500000    0.500000    0.700000    2.000000 Uiso  0.2700
 Sc1_B_n72 Sc3+    0.000000    0.000000    0.710000    2.000000 Uiso  1.0000
 Cl1_B_n72 Cl1-    0.231300    0.000000    0.707579    2.000000 Uiso  1.0000
 Cl2_B_n72 Cl1-   -0.231300    0.000000    0.712421    2.000000 Uiso  1.0000
 Cl3_B_n72 Cl1-   -0.237100   -0.160900    0.707613    2.000000 Uiso  1.0000
 Cl4_B_n72 Cl1-   -0.237100    0.160900    0.707613    2.000000 Uiso  1.0000
 Cl5_B_n72 Cl1-    0.237100   -0.160900    0.712387    2.000000 Uiso  1.0000
 Cl6_B_n72 Cl1-    0.237100    0.160900    0.712387    2.000000 Uiso  1.0000
 Li1a_B_n72 Li+    0.000000    0.334700    0.710000    2.000000 Uiso  1.0000
 Li1b_B_n72 Li+    0.000000    0.665300    0.710000    2.000000 Uiso  1.0000
 Li2a_B_n72 Li+    0.500000    0.169000    0.710000    2.000000 Uiso  0.3650
 Li2b_B_n72 Li+    0.500000    0.831000    0.710000    2.000000 Uiso  0.3650
 Li3_B_n72 Li+    0.500000    0.500000    0.710000    2.000000 Uiso  0.2700
 Sc1_B_n73 Sc3+    0.000000    0.000000    0.720000    2.000000 Uiso  1.0000
 Cl1_B_n73 Cl1-    0.231300    0.000000    0.717579    2.000000 Uiso  1.0000
 Cl2_B_n73 Cl1-   -0.231300    0.000000    0.722421    2.000000 Uiso  1.0000
 Cl3_B_n73 Cl1-   -0.237100   -0.160900    0.717613    2.000000 Uiso  1.0000
 Cl4_B_n73 Cl1-   -0.237100    0.160900    0.717613    2.000000 Uiso  1.0000
 Cl5_B_n73 Cl1-    0.237100   -0.160900    0.722387    2.000000 Uiso  1.0000
 Cl6_B_n73 Cl1-    0.237100    0.160900    0.722387    2.000000 Uiso  1.0000
 Li1a_B_n73 Li+    0.000000    0.334700    0.720000    2.000000 Uiso  1.0000
 Li1b_B_n73 Li+    0.000000    0.665300    0.720000    2.000000 Uiso  1.0000
 Li2a_B_n73 Li+    0.500000    0.169000    0.720000    2.000000 Uiso  0.3650
 Li2b_B_n73 Li+    0.500000    0.831000    0.720000    2.000000 Uiso  0.3650
 Li3_B_n73 Li+    0.500000    0.500000    0.720000    2.000000 Uiso  0.2700
 Sc1_B_n74 Sc3+    0.000000    0.000000    0.730000    2.000000 Uiso  1.0000
 Cl1_B_n74 Cl1-    0.231300    0.000000    0.727579    2.000000 Uiso  1.0000
 Cl2_B_n74 Cl1-   -0.231300    0.000000    0.732421    2.000000 Uiso  1.0000
 Cl3_B_n74 Cl1-   -0.237100   -0.160900    0.727613    2.000000 Uiso  1.0000
 Cl4_B_n74 Cl1-   -0.237100    0.160900    0.727613    2.000000 Uiso  1.0000
 Cl5_B_n74 Cl1-    0.237100   -0.160900    0.732387    2.000000 Uiso  1.0000
 Cl6_B_n74 Cl1-    0.237100    0.160900    0.732387    2.000000 Uiso  1.0000
 Li1a_B_n74 Li+    0.000000    0.334700    0.730000    2.000000 Uiso  1.0000
 Li1b_B_n74 Li+    0.000000    0.665300    0.730000    2.000000 Uiso  1.0000
 Li2a_B_n74 Li+    0.500000    0.169000    0.730000    2.000000 Uiso  0.3650
 Li2b_B_n74 Li+    0.500000    0.831000    0.730000    2.000000 Uiso  0.3650
 Li3_B_n74 Li+    0.500000    0.500000    0.730000    2.000000 Uiso  0.2700
 Sc1_B_n75 Sc3+    0.000000    0.000000    0.740000    2.000000 Uiso  1.0000
 Cl1_B_n75 Cl1-    0.231300    0.000000    0.737579    2.000000 Uiso  1.0000
 Cl2_B_n75 Cl1-   -0.231300    0.000000    0.742421    2.000000 Uiso  1.0000
 Cl3_B_n75 Cl1-   -0.237100   -0.160900    0.737613    2.000000 Uiso  1.0000
 Cl4_B_n75 Cl1-   -0.237100    0.160900    0.737613    2.000000 Uiso  1.0000
 Cl5_B_n75 Cl1-    0.237100   -0.160900    0.742387    2.000000 Uiso  1.0000
 Cl6_B_n75 Cl1-    0.237100    0.160900    0.742387    2.000000 Uiso  1.0000
 Li1a_B_n75 Li+    0.000000    0.334700    0.740000    2.000000 Uiso  1.0000
 Li1b_B_n75 Li+    0.000000    0.665300    0.740000    2.000000 Uiso  1.0000
 Li2a_B_n75 Li+    0.500000    0.169000    0.740000    2.000000 Uiso  0.3650
 Li2b_B_n75 Li+    0.500000    0.831000    0.740000    2.000000 Uiso  0.3650
 Li3_B_n75 Li+    0.500000    0.500000    0.740000    2.000000 Uiso  0.2700
 Sc1_B_n76 Sc3+    0.000000    0.000000    0.750000    2.000000 Uiso  1.0000
 Cl1_B_n76 Cl1-    0.231300    0.000000    0.747579    2.000000 Uiso  1.0000
 Cl2_B_n76 Cl1-   -0.231300    0.000000    0.752421    2.000000 Uiso  1.0000
 Cl3_B_n76 Cl1-   -0.237100   -0.160900    0.747613    2.000000 Uiso  1.0000
 Cl4_B_n76 Cl1-   -0.237100    0.160900    0.747613    2.000000 Uiso  1.0000
 Cl5_B_n76 Cl1-    0.237100   -0.160900    0.752387    2.000000 Uiso  1.0000
 Cl6_B_n76 Cl1-    0.237100    0.160900    0.752387    2.000000 Uiso  1.0000
 Li1a_B_n76 Li+    0.000000    0.334700    0.750000    2.000000 Uiso  1.0000
 Li1b_B_n76 Li+    0.000000    0.665300    0.750000    2.000000 Uiso  1.0000
 Li2a_B_n76 Li+    0.500000    0.169000    0.750000    2.000000 Uiso  0.3650
 Li2b_B_n76 Li+    0.500000    0.831000    0.750000    2.000000 Uiso  0.3650
 Li3_B_n76 Li+    0.500000    0.500000    0.750000    2.000000 Uiso  0.2700
 Sc1_B_n77 Sc3+    0.000000    0.000000    0.760000    2.000000 Uiso  1.0000
 Cl1_B_n77 Cl1-    0.231300    0.000000    0.757579    2.000000 Uiso  1.0000
 Cl2_B_n77 Cl1-   -0.231300    0.000000    0.762421    2.000000 Uiso  1.0000
 Cl3_B_n77 Cl1-   -0.237100   -0.160900    0.757613    2.000000 Uiso  1.0000
 Cl4_B_n77 Cl1-   -0.237100    0.160900    0.757613    2.000000 Uiso  1.0000
 Cl5_B_n77 Cl1-    0.237100   -0.160900    0.762387    2.000000 Uiso  1.0000
 Cl6_B_n77 Cl1-    0.237100    0.160900    0.762387    2.000000 Uiso  1.0000
 Li1a_B_n77 Li+    0.000000    0.334700    0.760000    2.000000 Uiso  1.0000
 Li1b_B_n77 Li+    0.000000    0.665300    0.760000    2.000000 Uiso  1.0000
 Li2a_B_n77 Li+    0.500000    0.169000    0.760000    2.000000 Uiso  0.3650
 Li2b_B_n77 Li+    0.500000    0.831000    0.760000    2.000000 Uiso  0.3650
 Li3_B_n77 Li+    0.500000    0.500000    0.760000    2.000000 Uiso  0.2700
 Sc1_B_n78 Sc3+    0.000000    0.000000    0.770000    2.000000 Uiso  1.0000
 Cl1_B_n78 Cl1-    0.231300    0.000000    0.767579    2.000000 Uiso  1.0000
 Cl2_B_n78 Cl1-   -0.231300    0.000000    0.772421    2.000000 Uiso  1.0000
 Cl3_B_n78 Cl1-   -0.237100   -0.160900    0.767613    2.000000 Uiso  1.0000
 Cl4_B_n78 Cl1-   -0.237100    0.160900    0.767613    2.000000 Uiso  1.0000
 Cl5_B_n78 Cl1-    0.237100   -0.160900    0.772387    2.000000 Uiso  1.0000
 Cl6_B_n78 Cl1-    0.237100    0.160900    0.772387    2.000000 Uiso  1.0000
 Li1a_B_n78 Li+    0.000000    0.334700    0.770000    2.000000 Uiso  1.0000
 Li1b_B_n78 Li+    0.000000    0.665300    0.770000    2.000000 Uiso  1.0000
 Li2a_B_n78 Li+    0.500000    0.169000    0.770000    2.000000 Uiso  0.3650
 Li2b_B_n78 Li+    0.500000    0.831000    0.770000    2.000000 Uiso  0.3650
 Li3_B_n78 Li+    0.500000    0.500000    0.770000    2.000000 Uiso  0.2700
 Sc1_B_n79 Sc3+    0.000000    0.000000    0.780000    2.000000 Uiso  1.0000
 Cl1_B_n79 Cl1-    0.231300    0.000000    0.777579    2.000000 Uiso  1.0000
 Cl2_B_n79 Cl1-   -0.231300    0.000000    0.782421    2.000000 Uiso  1.0000
 Cl3_B_n79 Cl1-   -0.237100   -0.160900    0.777613    2.000000 Uiso  1.0000
 Cl4_B_n79 Cl1-   -0.237100    0.160900    0.777613    2.000000 Uiso  1.0000
 Cl5_B_n79 Cl1-    0.237100   -0.160900    0.782387    2.000000 Uiso  1.0000
 Cl6_B_n79 Cl1-    0.237100    0.160900    0.782387    2.000000 Uiso  1.0000
 Li1a_B_n79 Li+    0.000000    0.334700    0.780000    2.000000 Uiso  1.0000
 Li1b_B_n79 Li+    0.000000    0.665300    0.780000    2.000000 Uiso  1.0000
 Li2a_B_n79 Li+    0.500000    0.169000    0.780000    2.000000 Uiso  0.3650
 Li2b_B_n79 Li+    0.500000    0.831000    0.780000    2.000000 Uiso  0.3650
 Li3_B_n79 Li+    0.500000    0.500000    0.780000    2.000000 Uiso  0.2700
 Sc1_B_n80 Sc3+    0.000000    0.000000    0.790000    2.000000 Uiso  1.0000
 Cl1_B_n80 Cl1-    0.231300    0.000000    0.787579    2.000000 Uiso  1.0000
 Cl2_B_n80 Cl1-   -0.231300    0.000000    0.792421    2.000000 Uiso  1.0000
 Cl3_B_n80 Cl1-   -0.237100   -0.160900    0.787613    2.000000 Uiso  1.0000
 Cl4_B_n80 Cl1-   -0.237100    0.160900    0.787613    2.000000 Uiso  1.0000
 Cl5_B_n80 Cl1-    0.237100   -0.160900    0.792387    2.000000 Uiso  1.0000
 Cl6_B_n80 Cl1-    0.237100    0.160900    0.792387    2.000000 Uiso  1.0000
 Li1a_B_n80 Li+    0.000000    0.334700    0.790000    2.000000 Uiso  1.0000
 Li1b_B_n80 Li+    0.000000    0.665300    0.790000    2.000000 Uiso  1.0000
 Li2a_B_n80 Li+    0.500000    0.169000    0.790000    2.000000 Uiso  0.3650
 Li2b_B_n80 Li+    0.500000    0.831000    0.790000    2.000000 Uiso  0.3650
 Li3_B_n80 Li+    0.500000    0.500000    0.790000    2.000000 Uiso  0.2700
 Sc1_B_n81 Sc3+    0.000000    0.000000    0.800000    2.000000 Uiso  1.0000
 Cl1_B_n81 Cl1-    0.231300    0.000000    0.797579    2.000000 Uiso  1.0000
 Cl2_B_n81 Cl1-   -0.231300    0.000000    0.802421    2.000000 Uiso  1.0000
 Cl3_B_n81 Cl1-   -0.237100   -0.160900    0.797613    2.000000 Uiso  1.0000
 Cl4_B_n81 Cl1-   -0.237100    0.160900    0.797613    2.000000 Uiso  1.0000
 Cl5_B_n81 Cl1-    0.237100   -0.160900    0.802387    2.000000 Uiso  1.0000
 Cl6_B_n81 Cl1-    0.237100    0.160900    0.802387    2.000000 Uiso  1.0000
 Li1a_B_n81 Li+    0.000000    0.334700    0.800000    2.000000 Uiso  1.0000
 Li1b_B_n81 Li+    0.000000    0.665300    0.800000    2.000000 Uiso  1.0000
 Li2a_B_n81 Li+    0.500000    0.169000    0.800000    2.000000 Uiso  0.3650
 Li2b_B_n81 Li+    0.500000    0.831000    0.800000    2.000000 Uiso  0.3650
 Li3_B_n81 Li+    0.500000    0.500000    0.800000    2.000000 Uiso  0.2700
 Sc1_B_n82 Sc3+    0.000000    0.000000    0.810000    2.000000 Uiso  1.0000
 Cl1_B_n82 Cl1-    0.231300    0.000000    0.807579    2.000000 Uiso  1.0000
 Cl2_B_n82 Cl1-   -0.231300    0.000000    0.812421    2.000000 Uiso  1.0000
 Cl3_B_n82 Cl1-   -0.237100   -0.160900    0.807613    2.000000 Uiso  1.0000
 Cl4_B_n82 Cl1-   -0.237100    0.160900    0.807613    2.000000 Uiso  1.0000
 Cl5_B_n82 Cl1-    0.237100   -0.160900    0.812387    2.000000 Uiso  1.0000
 Cl6_B_n82 Cl1-    0.237100    0.160900    0.812387    2.000000 Uiso  1.0000
 Li1a_B_n82 Li+    0.000000    0.334700    0.810000    2.000000 Uiso  1.0000
 Li1b_B_n82 Li+    0.000000    0.665300    0.810000    2.000000 Uiso  1.0000
 Li2a_B_n82 Li+    0.500000    0.169000    0.810000    2.000000 Uiso  0.3650
 Li2b_B_n82 Li+    0.500000    0.831000    0.810000    2.000000 Uiso  0.3650
 Li3_B_n82 Li+    0.500000    0.500000    0.810000    2.000000 Uiso  0.2700
 Sc1_B_n83 Sc3+    0.000000    0.000000    0.820000    2.000000 Uiso  1.0000
 Cl1_B_n83 Cl1-    0.231300    0.000000    0.817579    2.000000 Uiso  1.0000
 Cl2_B_n83 Cl1-   -0.231300    0.000000    0.822421    2.000000 Uiso  1.0000
 Cl3_B_n83 Cl1-   -0.237100   -0.160900    0.817613    2.000000 Uiso  1.0000
 Cl4_B_n83 Cl1-   -0.237100    0.160900    0.817613    2.000000 Uiso  1.0000
 Cl5_B_n83 Cl1-    0.237100   -0.160900    0.822387    2.000000 Uiso  1.0000
 Cl6_B_n83 Cl1-    0.237100    0.160900    0.822387    2.000000 Uiso  1.0000
 Li1a_B_n83 Li+    0.000000    0.334700    0.820000    2.000000 Uiso  1.0000
 Li1b_B_n83 Li+    0.000000    0.665300    0.820000    2.000000 Uiso  1.0000
 Li2a_B_n83 Li+    0.500000    0.169000    0.820000    2.000000 Uiso  0.3650
 Li2b_B_n83 Li+    0.500000    0.831000    0.820000    2.000000 Uiso  0.3650
 Li3_B_n83 Li+    0.500000    0.500000    0.820000    2.000000 Uiso  0.2700
 Sc1_B_n84 Sc3+    0.000000    0.000000    0.830000    2.000000 Uiso  1.0000
 Cl1_B_n84 Cl1-    0.231300    0.000000    0.827579    2.000000 Uiso  1.0000
 Cl2_B_n84 Cl1-   -0.231300    0.000000    0.832421    2.000000 Uiso  1.0000
 Cl3_B_n84 Cl1-   -0.237100   -0.160900    0.827613    2.000000 Uiso  1.0000
 Cl4_B_n84 Cl1-   -0.237100    0.160900    0.827613    2.000000 Uiso  1.0000
 Cl5_B_n84 Cl1-    0.237100   -0.160900    0.832387    2.000000 Uiso  1.0000
 Cl6_B_n84 Cl1-    0.237100    0.160900    0.832387    2.000000 Uiso  1.0000
 Li1a_B_n84 Li+    0.000000    0.334700    0.830000    2.000000 Uiso  1.0000
 Li1b_B_n84 Li+    0.000000    0.665300    0.830000    2.000000 Uiso  1.0000
 Li2a_B_n84 Li+    0.500000    0.169000    0.830000    2.000000 Uiso  0.3650
 Li2b_B_n84 Li+    0.500000    0.831000    0.830000    2.000000 Uiso  0.3650
 Li3_B_n84 Li+    0.500000    0.500000    0.830000    2.000000 Uiso  0.2700
 Sc1_B_n85 Sc3+    0.000000    0.000000    0.840000    2.000000 Uiso  1.0000
 Cl1_B_n85 Cl1-    0.231300    0.000000    0.837579    2.000000 Uiso  1.0000
 Cl2_B_n85 Cl1-   -0.231300    0.000000    0.842421    2.000000 Uiso  1.0000
 Cl3_B_n85 Cl1-   -0.237100   -0.160900    0.837613    2.000000 Uiso  1.0000
 Cl4_B_n85 Cl1-   -0.237100    0.160900    0.837613    2.000000 Uiso  1.0000
 Cl5_B_n85 Cl1-    0.237100   -0.160900    0.842387    2.000000 Uiso  1.0000
 Cl6_B_n85 Cl1-    0.237100    0.160900    0.842387    2.000000 Uiso  1.0000
 Li1a_B_n85 Li+    0.000000    0.334700    0.840000    2.000000 Uiso  1.0000
 Li1b_B_n85 Li+    0.000000    0.665300    0.840000    2.000000 Uiso  1.0000
 Li2a_B_n85 Li+    0.500000    0.169000    0.840000    2.000000 Uiso  0.3650
 Li2b_B_n85 Li+    0.500000    0.831000    0.840000    2.000000 Uiso  0.3650
 Li3_B_n85 Li+    0.500000    0.500000    0.840000    2.000000 Uiso  0.2700
 Sc1_B_n86 Sc3+    0.000000    0.000000    0.850000    2.000000 Uiso  1.0000
 Cl1_B_n86 Cl1-    0.231300    0.000000    0.847579    2.000000 Uiso  1.0000
 Cl2_B_n86 Cl1-   -0.231300    0.000000    0.852421    2.000000 Uiso  1.0000
 Cl3_B_n86 Cl1-   -0.237100   -0.160900    0.847613    2.000000 Uiso  1.0000
 Cl4_B_n86 Cl1-   -0.237100    0.160900    0.847613    2.000000 Uiso  1.0000
 Cl5_B_n86 Cl1-    0.237100   -0.160900    0.852387    2.000000 Uiso  1.0000
 Cl6_B_n86 Cl1-    0.237100    0.160900    0.852387    2.000000 Uiso  1.0000
 Li1a_B_n86 Li+    0.000000    0.334700    0.850000    2.000000 Uiso  1.0000
 Li1b_B_n86 Li+    0.000000    0.665300    0.850000    2.000000 Uiso  1.0000
 Li2a_B_n86 Li+    0.500000    0.169000    0.850000    2.000000 Uiso  0.3650
 Li2b_B_n86 Li+    0.500000    0.831000    0.850000    2.000000 Uiso  0.3650
 Li3_B_n86 Li+    0.500000    0.500000    0.850000    2.000000 Uiso  0.2700
 Sc1_B_n87 Sc3+    0.000000    0.000000    0.860000    2.000000 Uiso  1.0000
 Cl1_B_n87 Cl1-    0.231300    0.000000    0.857579    2.000000 Uiso  1.0000
 Cl2_B_n87 Cl1-   -0.231300    0.000000    0.862421    2.000000 Uiso  1.0000
 Cl3_B_n87 Cl1-   -0.237100   -0.160900    0.857613    2.000000 Uiso  1.0000
 Cl4_B_n87 Cl1-   -0.237100    0.160900    0.857613    2.000000 Uiso  1.0000
 Cl5_B_n87 Cl1-    0.237100   -0.160900    0.862387    2.000000 Uiso  1.0000
 Cl6_B_n87 Cl1-    0.237100    0.160900    0.862387    2.000000 Uiso  1.0000
 Li1a_B_n87 Li+    0.000000    0.334700    0.860000    2.000000 Uiso  1.0000
 Li1b_B_n87 Li+    0.000000    0.665300    0.860000    2.000000 Uiso  1.0000
 Li2a_B_n87 Li+    0.500000    0.169000    0.860000    2.000000 Uiso  0.3650
 Li2b_B_n87 Li+    0.500000    0.831000    0.860000    2.000000 Uiso  0.3650
 Li3_B_n87 Li+    0.500000    0.500000    0.860000    2.000000 Uiso  0.2700
 Sc1_B_n88 Sc3+    0.000000    0.000000    0.870000    2.000000 Uiso  1.0000
 Cl1_B_n88 Cl1-    0.231300    0.000000    0.867579    2.000000 Uiso  1.0000
 Cl2_B_n88 Cl1-   -0.231300    0.000000    0.872421    2.000000 Uiso  1.0000
 Cl3_B_n88 Cl1-   -0.237100   -0.160900    0.867613    2.000000 Uiso  1.0000
 Cl4_B_n88 Cl1-   -0.237100    0.160900    0.867613    2.000000 Uiso  1.0000
 Cl5_B_n88 Cl1-    0.237100   -0.160900    0.872387    2.000000 Uiso  1.0000
 Cl6_B_n88 Cl1-    0.237100    0.160900    0.872387    2.000000 Uiso  1.0000
 Li1a_B_n88 Li+    0.000000    0.334700    0.870000    2.000000 Uiso  1.0000
 Li1b_B_n88 Li+    0.000000    0.665300    0.870000    2.000000 Uiso  1.0000
 Li2a_B_n88 Li+    0.500000    0.169000    0.870000    2.000000 Uiso  0.3650
 Li2b_B_n88 Li+    0.500000    0.831000    0.870000    2.000000 Uiso  0.3650
 Li3_B_n88 Li+    0.500000    0.500000    0.870000    2.000000 Uiso  0.2700
 Sc1_B_n89 Sc3+    0.000000    0.000000    0.880000    2.000000 Uiso  1.0000
 Cl1_B_n89 Cl1-    0.231300    0.000000    0.877579    2.000000 Uiso  1.0000
 Cl2_B_n89 Cl1-   -0.231300    0.000000    0.882421    2.000000 Uiso  1.0000
 Cl3_B_n89 Cl1-   -0.237100   -0.160900    0.877613    2.000000 Uiso  1.0000
 Cl4_B_n89 Cl1-   -0.237100    0.160900    0.877613    2.000000 Uiso  1.0000
 Cl5_B_n89 Cl1-    0.237100   -0.160900    0.882387    2.000000 Uiso  1.0000
 Cl6_B_n89 Cl1-    0.237100    0.160900    0.882387    2.000000 Uiso  1.0000
 Li1a_B_n89 Li+    0.000000    0.334700    0.880000    2.000000 Uiso  1.0000
 Li1b_B_n89 Li+    0.000000    0.665300    0.880000    2.000000 Uiso  1.0000
 Li2a_B_n89 Li+    0.500000    0.169000    0.880000    2.000000 Uiso  0.3650
 Li2b_B_n89 Li+    0.500000    0.831000    0.880000    2.000000 Uiso  0.3650
 Li3_B_n89 Li+    0.500000    0.500000    0.880000    2.000000 Uiso  0.2700
 Sc1_B_n90 Sc3+    0.000000    0.000000    0.890000    2.000000 Uiso  1.0000
 Cl1_B_n90 Cl1-    0.231300    0.000000    0.887579    2.000000 Uiso  1.0000
 Cl2_B_n90 Cl1-   -0.231300    0.000000    0.892421    2.000000 Uiso  1.0000
 Cl3_B_n90 Cl1-   -0.237100   -0.160900    0.887613    2.000000 Uiso  1.0000
 Cl4_B_n90 Cl1-   -0.237100    0.160900    0.887613    2.000000 Uiso  1.0000
 Cl5_B_n90 Cl1-    0.237100   -0.160900    0.892387    2.000000 Uiso  1.0000
 Cl6_B_n90 Cl1-    0.237100    0.160900    0.892387    2.000000 Uiso  1.0000
 Li1a_B_n90 Li+    0.000000    0.334700    0.890000    2.000000 Uiso  1.0000
 Li1b_B_n90 Li+    0.000000    0.665300    0.890000    2.000000 Uiso  1.0000
 Li2a_B_n90 Li+    0.500000    0.169000    0.890000    2.000000 Uiso  0.3650
 Li2b_B_n90 Li+    0.500000    0.831000    0.890000    2.000000 Uiso  0.3650
 Li3_B_n90 Li+    0.500000    0.500000    0.890000    2.000000 Uiso  0.2700
 Sc1_B_n91 Sc3+    0.000000    0.000000    0.900000    2.000000 Uiso  1.0000
 Cl1_B_n91 Cl1-    0.231300    0.000000    0.897579    2.000000 Uiso  1.0000
 Cl2_B_n91 Cl1-   -0.231300    0.000000    0.902421    2.000000 Uiso  1.0000
 Cl3_B_n91 Cl1-   -0.237100   -0.160900    0.897613    2.000000 Uiso  1.0000
 Cl4_B_n91 Cl1-   -0.237100    0.160900    0.897613    2.000000 Uiso  1.0000
 Cl5_B_n91 Cl1-    0.237100   -0.160900    0.902387    2.000000 Uiso  1.0000
 Cl6_B_n91 Cl1-    0.237100    0.160900    0.902387    2.000000 Uiso  1.0000
 Li1a_B_n91 Li+    0.000000    0.334700    0.900000    2.000000 Uiso  1.0000
 Li1b_B_n91 Li+    0.000000    0.665300    0.900000    2.000000 Uiso  1.0000
 Li2a_B_n91 Li+    0.500000    0.169000    0.900000    2.000000 Uiso  0.3650
 Li2b_B_n91 Li+    0.500000    0.831000    0.900000    2.000000 Uiso  0.3650
 Li3_B_n91 Li+    0.500000    0.500000    0.900000    2.000000 Uiso  0.2700
 Sc1_B_n92 Sc3+    0.000000    0.000000    0.910000    2.000000 Uiso  1.0000
 Cl1_B_n92 Cl1-    0.231300    0.000000    0.907579    2.000000 Uiso  1.0000
 Cl2_B_n92 Cl1-   -0.231300    0.000000    0.912421    2.000000 Uiso  1.0000
 Cl3_B_n92 Cl1-   -0.237100   -0.160900    0.907613    2.000000 Uiso  1.0000
 Cl4_B_n92 Cl1-   -0.237100    0.160900    0.907613    2.000000 Uiso  1.0000
 Cl5_B_n92 Cl1-    0.237100   -0.160900    0.912387    2.000000 Uiso  1.0000
 Cl6_B_n92 Cl1-    0.237100    0.160900    0.912387    2.000000 Uiso  1.0000
 Li1a_B_n92 Li+    0.000000    0.334700    0.910000    2.000000 Uiso  1.0000
 Li1b_B_n92 Li+    0.000000    0.665300    0.910000    2.000000 Uiso  1.0000
 Li2a_B_n92 Li+    0.500000    0.169000    0.910000    2.000000 Uiso  0.3650
 Li2b_B_n92 Li+    0.500000    0.831000    0.910000    2.000000 Uiso  0.3650
 Li3_B_n92 Li+    0.500000    0.500000    0.910000    2.000000 Uiso  0.2700
 Sc1_B_n93 Sc3+    0.000000    0.000000    0.920000    2.000000 Uiso  1.0000
 Cl1_B_n93 Cl1-    0.231300    0.000000    0.917579    2.000000 Uiso  1.0000
 Cl2_B_n93 Cl1-   -0.231300    0.000000    0.922421    2.000000 Uiso  1.0000
 Cl3_B_n93 Cl1-   -0.237100   -0.160900    0.917613    2.000000 Uiso  1.0000
 Cl4_B_n93 Cl1-   -0.237100    0.160900    0.917613    2.000000 Uiso  1.0000
 Cl5_B_n93 Cl1-    0.237100   -0.160900    0.922387    2.000000 Uiso  1.0000
 Cl6_B_n93 Cl1-    0.237100    0.160900    0.922387    2.000000 Uiso  1.0000
 Li1a_B_n93 Li+    0.000000    0.334700    0.920000    2.000000 Uiso  1.0000
 Li1b_B_n93 Li+    0.000000    0.665300    0.920000    2.000000 Uiso  1.0000
 Li2a_B_n93 Li+    0.500000    0.169000    0.920000    2.000000 Uiso  0.3650
 Li2b_B_n93 Li+    0.500000    0.831000    0.920000    2.000000 Uiso  0.3650
 Li3_B_n93 Li+    0.500000    0.500000    0.920000    2.000000 Uiso  0.2700
 Sc1_B_n94 Sc3+    0.000000    0.000000    0.930000    2.000000 Uiso  1.0000
 Cl1_B_n94 Cl1-    0.231300    0.000000    0.927579    2.000000 Uiso  1.0000
 Cl2_B_n94 Cl1-   -0.231300    0.000000    0.932421    2.000000 Uiso  1.0000
 Cl3_B_n94 Cl1-   -0.237100   -0.160900    0.927613    2.000000 Uiso  1.0000
 Cl4_B_n94 Cl1-   -0.237100    0.160900    0.927613    2.000000 Uiso  1.0000
 Cl5_B_n94 Cl1-    0.237100   -0.160900    0.932387    2.000000 Uiso  1.0000
 Cl6_B_n94 Cl1-    0.237100    0.160900    0.932387    2.000000 Uiso  1.0000
 Li1a_B_n94 Li+    0.000000    0.334700    0.930000    2.000000 Uiso  1.0000
 Li1b_B_n94 Li+    0.000000    0.665300    0.930000    2.000000 Uiso  1.0000
 Li2a_B_n94 Li+    0.500000    0.169000    0.930000    2.000000 Uiso  0.3650
 Li2b_B_n94 Li+    0.500000    0.831000    0.930000    2.000000 Uiso  0.3650
 Li3_B_n94 Li+    0.500000    0.500000    0.930000    2.000000 Uiso  0.2700
 Sc1_B_n95 Sc3+    0.000000    0.000000    0.940000    2.000000 Uiso  1.0000
 Cl1_B_n95 Cl1-    0.231300    0.000000    0.937579    2.000000 Uiso  1.0000
 Cl2_B_n95 Cl1-   -0.231300    0.000000    0.942421    2.000000 Uiso  1.0000
 Cl3_B_n95 Cl1-   -0.237100   -0.160900    0.937613    2.000000 Uiso  1.0000
 Cl4_B_n95 Cl1-   -0.237100    0.160900    0.937613    2.000000 Uiso  1.0000
 Cl5_B_n95 Cl1-    0.237100   -0.160900    0.942387    2.000000 Uiso  1.0000
 Cl6_B_n95 Cl1-    0.237100    0.160900    0.942387    2.000000 Uiso  1.0000
 Li1a_B_n95 Li+    0.000000    0.334700    0.940000    2.000000 Uiso  1.0000
 Li1b_B_n95 Li+    0.000000    0.665300    0.940000    2.000000 Uiso  1.0000
 Li2a_B_n95 Li+    0.500000    0.169000    0.940000    2.000000 Uiso  0.3650
 Li2b_B_n95 Li+    0.500000    0.831000    0.940000    2.000000 Uiso  0.3650
 Li3_B_n95 Li+    0.500000    0.500000    0.940000    2.000000 Uiso  0.2700
 Sc1_B_n96 Sc3+    0.000000    0.000000    0.950000    2.000000 Uiso  1.0000
 Cl1_B_n96 Cl1-    0.231300    0.000000    0.947579    2.000000 Uiso  1.0000
 Cl2_B_n96 Cl1-   -0.231300    0.000000    0.952421    2.000000 Uiso  1.0000
 Cl3_B_n96 Cl1-   -0.237100   -0.160900    0.947613    2.000000 Uiso  1.0000
 Cl4_B_n96 Cl1-   -0.237100    0.160900    0.947613    2.000000 Uiso  1.0000
 Cl5_B_n96 Cl1-    0.237100   -0.160900    0.952387    2.000000 Uiso  1.0000
 Cl6_B_n96 Cl1-    0.237100    0.160900    0.952387    2.000000 Uiso  1.0000
 Li1a_B_n96 Li+    0.000000    0.334700    0.950000    2.000000 Uiso  1.0000
 Li1b_B_n96 Li+    0.000000    0.665300    0.950000    2.000000 Uiso  1.0000
 Li2a_B_n96 Li+    0.500000    0.169000    0.950000    2.000000 Uiso  0.3650
 Li2b_B_n96 Li+    0.500000    0.831000    0.950000    2.000000 Uiso  0.3650
 Li3_B_n96 Li+    0.500000    0.500000    0.950000    2.000000 Uiso  0.2700
 Sc1_B_n97 Sc3+    0.000000    0.000000    0.960000    2.000000 Uiso  1.0000
 Cl1_B_n97 Cl1-    0.231300    0.000000    0.957579    2.000000 Uiso  1.0000
 Cl2_B_n97 Cl1-   -0.231300    0.000000    0.962421    2.000000 Uiso  1.0000
 Cl3_B_n97 Cl1-   -0.237100   -0.160900    0.957613    2.000000 Uiso  1.0000
 Cl4_B_n97 Cl1-   -0.237100    0.160900    0.957613    2.000000 Uiso  1.0000
 Cl5_B_n97 Cl1-    0.237100   -0.160900    0.962387    2.000000 Uiso  1.0000
 Cl6_B_n97 Cl1-    0.237100    0.160900    0.962387    2.000000 Uiso  1.0000
 Li1a_B_n97 Li+    0.000000    0.334700    0.960000    2.000000 Uiso  1.0000
 Li1b_B_n97 Li+    0.000000    0.665300    0.960000    2.000000 Uiso  1.0000
 Li2a_B_n97 Li+    0.500000    0.169000    0.960000    2.000000 Uiso  0.3650
 Li2b_B_n97 Li+    0.500000    0.831000    0.960000    2.000000 Uiso  0.3650
 Li3_B_n97 Li+    0.500000    0.500000    0.960000    2.000000 Uiso  0.2700
 Sc1_B_n98 Sc3+    0.000000    0.000000    0.970000    2.000000 Uiso  1.0000
 Cl1_B_n98 Cl1-    0.231300    0.000000    0.967579    2.000000 Uiso  1.0000
 Cl2_B_n98 Cl1-   -0.231300    0.000000    0.972421    2.000000 Uiso  1.0000
 Cl3_B_n98 Cl1-   -0.237100   -0.160900    0.967613    2.000000 Uiso  1.0000
 Cl4_B_n98 Cl1-   -0.237100    0.160900    0.967613    2.000000 Uiso  1.0000
 Cl5_B_n98 Cl1-    0.237100   -0.160900    0.972387    2.000000 Uiso  1.0000
 Cl6_B_n98 Cl1-    0.237100    0.160900    0.972387    2.000000 Uiso  1.0000
 Li1a_B_n98 Li+    0.000000    0.334700    0.970000    2.000000 Uiso  1.0000
 Li1b_B_n98 Li+    0.000000    0.665300    0.970000    2.000000 Uiso  1.0000
 Li2a_B_n98 Li+    0.500000    0.169000    0.970000    2.000000 Uiso  0.3650
 Li2b_B_n98 Li+    0.500000    0.831000    0.970000    2.000000 Uiso  0.3650
 Li3_B_n98 Li+    0.500000    0.500000    0.970000    2.000000 Uiso  0.2700
 Sc1_B_n99 Sc3+    0.000000    0.000000    0.980000    2.000000 Uiso  1.0000
 Cl1_B_n99 Cl1-    0.231300    0.000000    0.977579    2.000000 Uiso  1.0000
 Cl2_B_n99 Cl1-   -0.231300    0.000000    0.982421    2.000000 Uiso  1.0000
 Cl3_B_n99 Cl1-   -0.237100   -0.160900    0.977613    2.000000 Uiso  1.0000
 Cl4_B_n99 Cl1-   -0.237100    0.160900    0.977613    2.000000 Uiso  1.0000
 Cl5_B_n99 Cl1-    0.237100   -0.160900    0.982387    2.000000 Uiso  1.0000
 Cl6_B_n99 Cl1-    0.237100    0.160900    0.982387    2.000000 Uiso  1.0000
 Li1a_B_n99 Li+    0.000000    0.334700    0.980000    2.000000 Uiso  1.0000
 Li1b_B_n99 Li+    0.000000    0.665300    0.980000    2.000000 Uiso  1.0000
 Li2a_B_n99 Li+    0.500000    0.169000    0.980000    2.000000 Uiso  0.3650
 Li2b_B_n99 Li+    0.500000    0.831000    0.980000    2.000000 Uiso  0.3650
 Li3_B_n99 Li+    0.500000    0.500000    0.980000    2.000000 Uiso  0.2700
 Sc1_B_n100 Sc3+    0.000000    0.000000    0.990000    2.000000 Uiso  1.0000
 Cl1_B_n100 Cl1-    0.231300    0.000000    0.987579    2.000000 Uiso  1.0000
 Cl2_B_n100 Cl1-   -0.231300    0.000000    0.992421    2.000000 Uiso  1.0000
 Cl3_B_n100 Cl1-   -0.237100   -0.160900    0.987613    2.000000 Uiso  1.0000
 Cl4_B_n100 Cl1-   -0.237100    0.160900    0.987613    2.000000 Uiso  1.0000
 Cl5_B_n100 Cl1-    0.237100   -0.160900    0.992387    2.000000 Uiso  1.0000
 Cl6_B_n100 Cl1-    0.237100    0.160900    0.992387    2.000000 Uiso  1.0000
 Li1a_B_n100 Li+    0.000000    0.334700    0.990000    2.000000 Uiso  1.0000
 Li1b_B_n100 Li+    0.000000    0.665300    0.990000    2.000000 Uiso  1.0000
 Li2a_B_n100 Li+    0.500000    0.169000    0.990000    2.000000 Uiso  0.3650
 Li2b_B_n100 Li+    0.500000    0.831000    0.990000    2.000000 Uiso  0.3650
 Li3_B_n100 Li+    0.500000    0.500000    0.990000    2.000000 Uiso  0.2700
