_symmetry_space_group_name_H-M  P1
_symmetry_Int_Tables_number     1
_symmetry_cell_setting          triclinic

_cell_length_a                  1
_cell_length_b                  1
_cell_length_c                  1
_cell_angle_alpha               90
_cell_angle_beta                90
_cell_angle_gamma               90

loop_
_space_group_symop_operation_xyz
  'x, y, z' 

loop_
  _atom_site_label
  _atom_site_type_symbol
  _atom_site_fract_x
  _atom_site_fract_y
  _atom_site_fract_z
  _atom_site_B_iso_or_equiv
  _atom_site_adp_type
  _atom_site_occupancy
 H1_A  H+     0.000000    0.000000    0.000000    1.500000 Biso  1.0000
 H1_A2 H+     0.500000    0.500000    0.500000    1.500000 Biso  1.0000
