_symmetry_space_group_name_H-M  'P1
_symmetry_Int_Tables_number     1
_symmetry_cell_setting          triclinic

_cell_length_a                  6.398
_cell_length_b                  6.391
_cell_length_c                  5520
_cell_angle_alpha               90
_cell_angle_beta                90
_cell_angle_gamma               109.89

loop_
  _atom_site_label
  _atom_site_type_symbol
  _atom_site_fract_x
  _atom_site_fract_y
  _atom_site_fract_z
  _atom_site_U_iso_or_equiv
  _atom_site_adp_type
  _atom_site_occupancy
 Sc1_A1_n1 Sc3+    0.000000    0.000000    0.000000    2.000000 Uiso  1.0000
 Cl1_A1_n1 Cl1-    0.242100    0.768700    0.000000    2.000000 Uiso  1.0000
 Cl2_A1_n1 Cl1-    0.757900    0.231300    0.000000    2.000000 Uiso  1.0000
 Cl3_A1_n1 Cl1-    0.238700    0.237100    0.000322    2.000000 Uiso  1.0000
 Cl4_A1_n1 Cl1-    0.761300    0.762900    0.000322    2.000000 Uiso  1.0000
 Cl5_A1_n1 Cl1-    0.238700    0.237100   -0.000322    2.000000 Uiso  1.0000
 Cl6_A1_n1 Cl1-    0.761300    0.762900   -0.000322    2.000000 Uiso  1.0000
 Li3_A1_n1 Li+    0.500000    0.500000    0.000000    2.000000 Uiso  0.2700
 Sc1_A1_n2 Sc3+    0.000000    0.000000    0.002000    2.000000 Uiso  1.0000
 Cl1_A1_n2 Cl1-    0.242100    0.768700    0.002000    2.000000 Uiso  1.0000
 Cl2_A1_n2 Cl1-    0.757900    0.231300    0.002000    2.000000 Uiso  1.0000
 Cl3_A1_n2 Cl1-    0.238700    0.237100    0.002322    2.000000 Uiso  1.0000
 Cl4_A1_n2 Cl1-    0.761300    0.762900    0.002322    2.000000 Uiso  1.0000
 Cl5_A1_n2 Cl1-    0.238700    0.237100    0.001678    2.000000 Uiso  1.0000
 Cl6_A1_n2 Cl1-    0.761300    0.762900    0.001678    2.000000 Uiso  1.0000
 Li3_A1_n2 Li+    0.500000    0.500000    0.002000    2.000000 Uiso  0.2700
 Sc1_A1_n3 Sc3+    0.000000    0.000000    0.004000    2.000000 Uiso  1.0000
 Cl1_A1_n3 Cl1-    0.242100    0.768700    0.004000    2.000000 Uiso  1.0000
 Cl2_A1_n3 Cl1-    0.757900    0.231300    0.004000    2.000000 Uiso  1.0000
 Cl3_A1_n3 Cl1-    0.238700    0.237100    0.004322    2.000000 Uiso  1.0000
 Cl4_A1_n3 Cl1-    0.761300    0.762900    0.004322    2.000000 Uiso  1.0000
 Cl5_A1_n3 Cl1-    0.238700    0.237100    0.003678    2.000000 Uiso  1.0000
 Cl6_A1_n3 Cl1-    0.761300    0.762900    0.003678    2.000000 Uiso  1.0000
 Li3_A1_n3 Li+    0.500000    0.500000    0.004000    2.000000 Uiso  0.2700
 Sc1_A1_n4 Sc3+    0.000000    0.000000    0.006000    2.000000 Uiso  1.0000
 Cl1_A1_n4 Cl1-    0.242100    0.768700    0.006000    2.000000 Uiso  1.0000
 Cl2_A1_n4 Cl1-    0.757900    0.231300    0.006000    2.000000 Uiso  1.0000
 Cl3_A1_n4 Cl1-    0.238700    0.237100    0.006322    2.000000 Uiso  1.0000
 Cl4_A1_n4 Cl1-    0.761300    0.762900    0.006322    2.000000 Uiso  1.0000
 Cl5_A1_n4 Cl1-    0.238700    0.237100    0.005678    2.000000 Uiso  1.0000
 Cl6_A1_n4 Cl1-    0.761300    0.762900    0.005678    2.000000 Uiso  1.0000
 Li3_A1_n4 Li+    0.500000    0.500000    0.006000    2.000000 Uiso  0.2700
 Sc1_A1_n5 Sc3+    0.000000    0.000000    0.008000    2.000000 Uiso  1.0000
 Cl1_A1_n5 Cl1-    0.242100    0.768700    0.008000    2.000000 Uiso  1.0000
 Cl2_A1_n5 Cl1-    0.757900    0.231300    0.008000    2.000000 Uiso  1.0000
 Cl3_A1_n5 Cl1-    0.238700    0.237100    0.008322    2.000000 Uiso  1.0000
 Cl4_A1_n5 Cl1-    0.761300    0.762900    0.008322    2.000000 Uiso  1.0000
 Cl5_A1_n5 Cl1-    0.238700    0.237100    0.007678    2.000000 Uiso  1.0000
 Cl6_A1_n5 Cl1-    0.761300    0.762900    0.007678    2.000000 Uiso  1.0000
 Li3_A1_n5 Li+    0.500000    0.500000    0.008000    2.000000 Uiso  0.2700
 Sc1_A1_n6 Sc3+    0.000000    0.000000    0.010000    2.000000 Uiso  1.0000
 Cl1_A1_n6 Cl1-    0.242100    0.768700    0.010000    2.000000 Uiso  1.0000
 Cl2_A1_n6 Cl1-    0.757900    0.231300    0.010000    2.000000 Uiso  1.0000
 Cl3_A1_n6 Cl1-    0.238700    0.237100    0.010322    2.000000 Uiso  1.0000
 Cl4_A1_n6 Cl1-    0.761300    0.762900    0.010322    2.000000 Uiso  1.0000
 Cl5_A1_n6 Cl1-    0.238700    0.237100    0.009678    2.000000 Uiso  1.0000
 Cl6_A1_n6 Cl1-    0.761300    0.762900    0.009678    2.000000 Uiso  1.0000
 Li3_A1_n6 Li+    0.500000    0.500000    0.010000    2.000000 Uiso  0.2700
 Sc1_A1_n7 Sc3+    0.000000    0.000000    0.012000    2.000000 Uiso  1.0000
 Cl1_A1_n7 Cl1-    0.242100    0.768700    0.012000    2.000000 Uiso  1.0000
 Cl2_A1_n7 Cl1-    0.757900    0.231300    0.012000    2.000000 Uiso  1.0000
 Cl3_A1_n7 Cl1-    0.238700    0.237100    0.012322    2.000000 Uiso  1.0000
 Cl4_A1_n7 Cl1-    0.761300    0.762900    0.012322    2.000000 Uiso  1.0000
 Cl5_A1_n7 Cl1-    0.238700    0.237100    0.011678    2.000000 Uiso  1.0000
 Cl6_A1_n7 Cl1-    0.761300    0.762900    0.011678    2.000000 Uiso  1.0000
 Li3_A1_n7 Li+    0.500000    0.500000    0.012000    2.000000 Uiso  0.2700
 Sc1_A1_n8 Sc3+    0.000000    0.000000    0.014000    2.000000 Uiso  1.0000
 Cl1_A1_n8 Cl1-    0.242100    0.768700    0.014000    2.000000 Uiso  1.0000
 Cl2_A1_n8 Cl1-    0.757900    0.231300    0.014000    2.000000 Uiso  1.0000
 Cl3_A1_n8 Cl1-    0.238700    0.237100    0.014322    2.000000 Uiso  1.0000
 Cl4_A1_n8 Cl1-    0.761300    0.762900    0.014322    2.000000 Uiso  1.0000
 Cl5_A1_n8 Cl1-    0.238700    0.237100    0.013678    2.000000 Uiso  1.0000
 Cl6_A1_n8 Cl1-    0.761300    0.762900    0.013678    2.000000 Uiso  1.0000
 Li3_A1_n8 Li+    0.500000    0.500000    0.014000    2.000000 Uiso  0.2700
 Sc1_A1_n9 Sc3+    0.000000    0.000000    0.016000    2.000000 Uiso  1.0000
 Cl1_A1_n9 Cl1-    0.242100    0.768700    0.016000    2.000000 Uiso  1.0000
 Cl2_A1_n9 Cl1-    0.757900    0.231300    0.016000    2.000000 Uiso  1.0000
 Cl3_A1_n9 Cl1-    0.238700    0.237100    0.016322    2.000000 Uiso  1.0000
 Cl4_A1_n9 Cl1-    0.761300    0.762900    0.016322    2.000000 Uiso  1.0000
 Cl5_A1_n9 Cl1-    0.238700    0.237100    0.015678    2.000000 Uiso  1.0000
 Cl6_A1_n9 Cl1-    0.761300    0.762900    0.015678    2.000000 Uiso  1.0000
 Li3_A1_n9 Li+    0.500000    0.500000    0.016000    2.000000 Uiso  0.2700
 Sc1_A1_n10 Sc3+    0.000000    0.000000    0.018000    2.000000 Uiso  1.0000
 Cl1_A1_n10 Cl1-    0.242100    0.768700    0.018000    2.000000 Uiso  1.0000
 Cl2_A1_n10 Cl1-    0.757900    0.231300    0.018000    2.000000 Uiso  1.0000
 Cl3_A1_n10 Cl1-    0.238700    0.237100    0.018322    2.000000 Uiso  1.0000
 Cl4_A1_n10 Cl1-    0.761300    0.762900    0.018322    2.000000 Uiso  1.0000
 Cl5_A1_n10 Cl1-    0.238700    0.237100    0.017678    2.000000 Uiso  1.0000
 Cl6_A1_n10 Cl1-    0.761300    0.762900    0.017678    2.000000 Uiso  1.0000
 Li3_A1_n10 Li+    0.500000    0.500000    0.018000    2.000000 Uiso  0.2700
 Sc1_A1_n11 Sc3+    0.000000    0.000000    0.020000    2.000000 Uiso  1.0000
 Cl1_A1_n11 Cl1-    0.242100    0.768700    0.020000    2.000000 Uiso  1.0000
 Cl2_A1_n11 Cl1-    0.757900    0.231300    0.020000    2.000000 Uiso  1.0000
 Cl3_A1_n11 Cl1-    0.238700    0.237100    0.020322    2.000000 Uiso  1.0000
 Cl4_A1_n11 Cl1-    0.761300    0.762900    0.020322    2.000000 Uiso  1.0000
 Cl5_A1_n11 Cl1-    0.238700    0.237100    0.019678    2.000000 Uiso  1.0000
 Cl6_A1_n11 Cl1-    0.761300    0.762900    0.019678    2.000000 Uiso  1.0000
 Li3_A1_n11 Li+    0.500000    0.500000    0.020000    2.000000 Uiso  0.2700
 Sc1_A1_n12 Sc3+    0.000000    0.000000    0.022000    2.000000 Uiso  1.0000
 Cl1_A1_n12 Cl1-    0.242100    0.768700    0.022000    2.000000 Uiso  1.0000
 Cl2_A1_n12 Cl1-    0.757900    0.231300    0.022000    2.000000 Uiso  1.0000
 Cl3_A1_n12 Cl1-    0.238700    0.237100    0.022322    2.000000 Uiso  1.0000
 Cl4_A1_n12 Cl1-    0.761300    0.762900    0.022322    2.000000 Uiso  1.0000
 Cl5_A1_n12 Cl1-    0.238700    0.237100    0.021678    2.000000 Uiso  1.0000
 Cl6_A1_n12 Cl1-    0.761300    0.762900    0.021678    2.000000 Uiso  1.0000
 Li3_A1_n12 Li+    0.500000    0.500000    0.022000    2.000000 Uiso  0.2700
 Sc1_A1_n13 Sc3+    0.000000    0.000000    0.024000    2.000000 Uiso  1.0000
 Cl1_A1_n13 Cl1-    0.242100    0.768700    0.024000    2.000000 Uiso  1.0000
 Cl2_A1_n13 Cl1-    0.757900    0.231300    0.024000    2.000000 Uiso  1.0000
 Cl3_A1_n13 Cl1-    0.238700    0.237100    0.024322    2.000000 Uiso  1.0000
 Cl4_A1_n13 Cl1-    0.761300    0.762900    0.024322    2.000000 Uiso  1.0000
 Cl5_A1_n13 Cl1-    0.238700    0.237100    0.023678    2.000000 Uiso  1.0000
 Cl6_A1_n13 Cl1-    0.761300    0.762900    0.023678    2.000000 Uiso  1.0000
 Li3_A1_n13 Li+    0.500000    0.500000    0.024000    2.000000 Uiso  0.2700
 Sc1_A1_n14 Sc3+    0.000000    0.000000    0.026000    2.000000 Uiso  1.0000
 Cl1_A1_n14 Cl1-    0.242100    0.768700    0.026000    2.000000 Uiso  1.0000
 Cl2_A1_n14 Cl1-    0.757900    0.231300    0.026000    2.000000 Uiso  1.0000
 Cl3_A1_n14 Cl1-    0.238700    0.237100    0.026322    2.000000 Uiso  1.0000
 Cl4_A1_n14 Cl1-    0.761300    0.762900    0.026322    2.000000 Uiso  1.0000
 Cl5_A1_n14 Cl1-    0.238700    0.237100    0.025678    2.000000 Uiso  1.0000
 Cl6_A1_n14 Cl1-    0.761300    0.762900    0.025678    2.000000 Uiso  1.0000
 Li3_A1_n14 Li+    0.500000    0.500000    0.026000    2.000000 Uiso  0.2700
 Sc1_A1_n15 Sc3+    0.000000    0.000000    0.028000    2.000000 Uiso  1.0000
 Cl1_A1_n15 Cl1-    0.242100    0.768700    0.028000    2.000000 Uiso  1.0000
 Cl2_A1_n15 Cl1-    0.757900    0.231300    0.028000    2.000000 Uiso  1.0000
 Cl3_A1_n15 Cl1-    0.238700    0.237100    0.028322    2.000000 Uiso  1.0000
 Cl4_A1_n15 Cl1-    0.761300    0.762900    0.028322    2.000000 Uiso  1.0000
 Cl5_A1_n15 Cl1-    0.238700    0.237100    0.027678    2.000000 Uiso  1.0000
 Cl6_A1_n15 Cl1-    0.761300    0.762900    0.027678    2.000000 Uiso  1.0000
 Li3_A1_n15 Li+    0.500000    0.500000    0.028000    2.000000 Uiso  0.2700
 Sc1_A1_n16 Sc3+    0.000000    0.000000    0.030000    2.000000 Uiso  1.0000
 Cl1_A1_n16 Cl1-    0.242100    0.768700    0.030000    2.000000 Uiso  1.0000
 Cl2_A1_n16 Cl1-    0.757900    0.231300    0.030000    2.000000 Uiso  1.0000
 Cl3_A1_n16 Cl1-    0.238700    0.237100    0.030322    2.000000 Uiso  1.0000
 Cl4_A1_n16 Cl1-    0.761300    0.762900    0.030322    2.000000 Uiso  1.0000
 Cl5_A1_n16 Cl1-    0.238700    0.237100    0.029678    2.000000 Uiso  1.0000
 Cl6_A1_n16 Cl1-    0.761300    0.762900    0.029678    2.000000 Uiso  1.0000
 Li3_A1_n16 Li+    0.500000    0.500000    0.030000    2.000000 Uiso  0.2700
 Sc1_A1_n17 Sc3+    0.000000    0.000000    0.032000    2.000000 Uiso  1.0000
 Cl1_A1_n17 Cl1-    0.242100    0.768700    0.032000    2.000000 Uiso  1.0000
 Cl2_A1_n17 Cl1-    0.757900    0.231300    0.032000    2.000000 Uiso  1.0000
 Cl3_A1_n17 Cl1-    0.238700    0.237100    0.032322    2.000000 Uiso  1.0000
 Cl4_A1_n17 Cl1-    0.761300    0.762900    0.032322    2.000000 Uiso  1.0000
 Cl5_A1_n17 Cl1-    0.238700    0.237100    0.031678    2.000000 Uiso  1.0000
 Cl6_A1_n17 Cl1-    0.761300    0.762900    0.031678    2.000000 Uiso  1.0000
 Li3_A1_n17 Li+    0.500000    0.500000    0.032000    2.000000 Uiso  0.2700
 Sc1_A1_n18 Sc3+    0.000000    0.000000    0.034000    2.000000 Uiso  1.0000
 Cl1_A1_n18 Cl1-    0.242100    0.768700    0.034000    2.000000 Uiso  1.0000
 Cl2_A1_n18 Cl1-    0.757900    0.231300    0.034000    2.000000 Uiso  1.0000
 Cl3_A1_n18 Cl1-    0.238700    0.237100    0.034322    2.000000 Uiso  1.0000
 Cl4_A1_n18 Cl1-    0.761300    0.762900    0.034322    2.000000 Uiso  1.0000
 Cl5_A1_n18 Cl1-    0.238700    0.237100    0.033678    2.000000 Uiso  1.0000
 Cl6_A1_n18 Cl1-    0.761300    0.762900    0.033678    2.000000 Uiso  1.0000
 Li3_A1_n18 Li+    0.500000    0.500000    0.034000    2.000000 Uiso  0.2700
 Sc1_A1_n19 Sc3+    0.000000    0.000000    0.036000    2.000000 Uiso  1.0000
 Cl1_A1_n19 Cl1-    0.242100    0.768700    0.036000    2.000000 Uiso  1.0000
 Cl2_A1_n19 Cl1-    0.757900    0.231300    0.036000    2.000000 Uiso  1.0000
 Cl3_A1_n19 Cl1-    0.238700    0.237100    0.036322    2.000000 Uiso  1.0000
 Cl4_A1_n19 Cl1-    0.761300    0.762900    0.036322    2.000000 Uiso  1.0000
 Cl5_A1_n19 Cl1-    0.238700    0.237100    0.035678    2.000000 Uiso  1.0000
 Cl6_A1_n19 Cl1-    0.761300    0.762900    0.035678    2.000000 Uiso  1.0000
 Li3_A1_n19 Li+    0.500000    0.500000    0.036000    2.000000 Uiso  0.2700
 Sc1_A1_n20 Sc3+    0.000000    0.000000    0.038000    2.000000 Uiso  1.0000
 Cl1_A1_n20 Cl1-    0.242100    0.768700    0.038000    2.000000 Uiso  1.0000
 Cl2_A1_n20 Cl1-    0.757900    0.231300    0.038000    2.000000 Uiso  1.0000
 Cl3_A1_n20 Cl1-    0.238700    0.237100    0.038322    2.000000 Uiso  1.0000
 Cl4_A1_n20 Cl1-    0.761300    0.762900    0.038322    2.000000 Uiso  1.0000
 Cl5_A1_n20 Cl1-    0.238700    0.237100    0.037678    2.000000 Uiso  1.0000
 Cl6_A1_n20 Cl1-    0.761300    0.762900    0.037678    2.000000 Uiso  1.0000
 Li3_A1_n20 Li+    0.500000    0.500000    0.038000    2.000000 Uiso  0.2700
 Sc1_A1_n21 Sc3+    0.000000    0.000000    0.040000    2.000000 Uiso  1.0000
 Cl1_A1_n21 Cl1-    0.242100    0.768700    0.040000    2.000000 Uiso  1.0000
 Cl2_A1_n21 Cl1-    0.757900    0.231300    0.040000    2.000000 Uiso  1.0000
 Cl3_A1_n21 Cl1-    0.238700    0.237100    0.040322    2.000000 Uiso  1.0000
 Cl4_A1_n21 Cl1-    0.761300    0.762900    0.040322    2.000000 Uiso  1.0000
 Cl5_A1_n21 Cl1-    0.238700    0.237100    0.039678    2.000000 Uiso  1.0000
 Cl6_A1_n21 Cl1-    0.761300    0.762900    0.039678    2.000000 Uiso  1.0000
 Li3_A1_n21 Li+    0.500000    0.500000    0.040000    2.000000 Uiso  0.2700
 Sc1_A1_n22 Sc3+    0.000000    0.000000    0.042000    2.000000 Uiso  1.0000
 Cl1_A1_n22 Cl1-    0.242100    0.768700    0.042000    2.000000 Uiso  1.0000
 Cl2_A1_n22 Cl1-    0.757900    0.231300    0.042000    2.000000 Uiso  1.0000
 Cl3_A1_n22 Cl1-    0.238700    0.237100    0.042322    2.000000 Uiso  1.0000
 Cl4_A1_n22 Cl1-    0.761300    0.762900    0.042322    2.000000 Uiso  1.0000
 Cl5_A1_n22 Cl1-    0.238700    0.237100    0.041678    2.000000 Uiso  1.0000
 Cl6_A1_n22 Cl1-    0.761300    0.762900    0.041678    2.000000 Uiso  1.0000
 Li3_A1_n22 Li+    0.500000    0.500000    0.042000    2.000000 Uiso  0.2700
 Sc1_A1_n23 Sc3+    0.000000    0.000000    0.044000    2.000000 Uiso  1.0000
 Cl1_A1_n23 Cl1-    0.242100    0.768700    0.044000    2.000000 Uiso  1.0000
 Cl2_A1_n23 Cl1-    0.757900    0.231300    0.044000    2.000000 Uiso  1.0000
 Cl3_A1_n23 Cl1-    0.238700    0.237100    0.044322    2.000000 Uiso  1.0000
 Cl4_A1_n23 Cl1-    0.761300    0.762900    0.044322    2.000000 Uiso  1.0000
 Cl5_A1_n23 Cl1-    0.238700    0.237100    0.043678    2.000000 Uiso  1.0000
 Cl6_A1_n23 Cl1-    0.761300    0.762900    0.043678    2.000000 Uiso  1.0000
 Li3_A1_n23 Li+    0.500000    0.500000    0.044000    2.000000 Uiso  0.2700
 Sc1_A1_n24 Sc3+    0.000000    0.000000    0.046000    2.000000 Uiso  1.0000
 Cl1_A1_n24 Cl1-    0.242100    0.768700    0.046000    2.000000 Uiso  1.0000
 Cl2_A1_n24 Cl1-    0.757900    0.231300    0.046000    2.000000 Uiso  1.0000
 Cl3_A1_n24 Cl1-    0.238700    0.237100    0.046322    2.000000 Uiso  1.0000
 Cl4_A1_n24 Cl1-    0.761300    0.762900    0.046322    2.000000 Uiso  1.0000
 Cl5_A1_n24 Cl1-    0.238700    0.237100    0.045678    2.000000 Uiso  1.0000
 Cl6_A1_n24 Cl1-    0.761300    0.762900    0.045678    2.000000 Uiso  1.0000
 Li3_A1_n24 Li+    0.500000    0.500000    0.046000    2.000000 Uiso  0.2700
 Sc1_A1_n25 Sc3+    0.000000    0.000000    0.048000    2.000000 Uiso  1.0000
 Cl1_A1_n25 Cl1-    0.242100    0.768700    0.048000    2.000000 Uiso  1.0000
 Cl2_A1_n25 Cl1-    0.757900    0.231300    0.048000    2.000000 Uiso  1.0000
 Cl3_A1_n25 Cl1-    0.238700    0.237100    0.048322    2.000000 Uiso  1.0000
 Cl4_A1_n25 Cl1-    0.761300    0.762900    0.048322    2.000000 Uiso  1.0000
 Cl5_A1_n25 Cl1-    0.238700    0.237100    0.047678    2.000000 Uiso  1.0000
 Cl6_A1_n25 Cl1-    0.761300    0.762900    0.047678    2.000000 Uiso  1.0000
 Li3_A1_n25 Li+    0.500000    0.500000    0.048000    2.000000 Uiso  0.2700
 Sc1_A1_n26 Sc3+    0.000000    0.000000    0.050000    2.000000 Uiso  1.0000
 Cl1_A1_n26 Cl1-    0.242100    0.768700    0.050000    2.000000 Uiso  1.0000
 Cl2_A1_n26 Cl1-    0.757900    0.231300    0.050000    2.000000 Uiso  1.0000
 Cl3_A1_n26 Cl1-    0.238700    0.237100    0.050322    2.000000 Uiso  1.0000
 Cl4_A1_n26 Cl1-    0.761300    0.762900    0.050322    2.000000 Uiso  1.0000
 Cl5_A1_n26 Cl1-    0.238700    0.237100    0.049678    2.000000 Uiso  1.0000
 Cl6_A1_n26 Cl1-    0.761300    0.762900    0.049678    2.000000 Uiso  1.0000
 Li3_A1_n26 Li+    0.500000    0.500000    0.050000    2.000000 Uiso  0.2700
 Sc1_A1_n27 Sc3+    0.000000    0.000000    0.052000    2.000000 Uiso  1.0000
 Cl1_A1_n27 Cl1-    0.242100    0.768700    0.052000    2.000000 Uiso  1.0000
 Cl2_A1_n27 Cl1-    0.757900    0.231300    0.052000    2.000000 Uiso  1.0000
 Cl3_A1_n27 Cl1-    0.238700    0.237100    0.052322    2.000000 Uiso  1.0000
 Cl4_A1_n27 Cl1-    0.761300    0.762900    0.052322    2.000000 Uiso  1.0000
 Cl5_A1_n27 Cl1-    0.238700    0.237100    0.051678    2.000000 Uiso  1.0000
 Cl6_A1_n27 Cl1-    0.761300    0.762900    0.051678    2.000000 Uiso  1.0000
 Li3_A1_n27 Li+    0.500000    0.500000    0.052000    2.000000 Uiso  0.2700
 Sc1_A1_n28 Sc3+    0.000000    0.000000    0.054000    2.000000 Uiso  1.0000
 Cl1_A1_n28 Cl1-    0.242100    0.768700    0.054000    2.000000 Uiso  1.0000
 Cl2_A1_n28 Cl1-    0.757900    0.231300    0.054000    2.000000 Uiso  1.0000
 Cl3_A1_n28 Cl1-    0.238700    0.237100    0.054322    2.000000 Uiso  1.0000
 Cl4_A1_n28 Cl1-    0.761300    0.762900    0.054322    2.000000 Uiso  1.0000
 Cl5_A1_n28 Cl1-    0.238700    0.237100    0.053678    2.000000 Uiso  1.0000
 Cl6_A1_n28 Cl1-    0.761300    0.762900    0.053678    2.000000 Uiso  1.0000
 Li3_A1_n28 Li+    0.500000    0.500000    0.054000    2.000000 Uiso  0.2700
 Sc1_A1_n29 Sc3+    0.000000    0.000000    0.056000    2.000000 Uiso  1.0000
 Cl1_A1_n29 Cl1-    0.242100    0.768700    0.056000    2.000000 Uiso  1.0000
 Cl2_A1_n29 Cl1-    0.757900    0.231300    0.056000    2.000000 Uiso  1.0000
 Cl3_A1_n29 Cl1-    0.238700    0.237100    0.056322    2.000000 Uiso  1.0000
 Cl4_A1_n29 Cl1-    0.761300    0.762900    0.056322    2.000000 Uiso  1.0000
 Cl5_A1_n29 Cl1-    0.238700    0.237100    0.055678    2.000000 Uiso  1.0000
 Cl6_A1_n29 Cl1-    0.761300    0.762900    0.055678    2.000000 Uiso  1.0000
 Li3_A1_n29 Li+    0.500000    0.500000    0.056000    2.000000 Uiso  0.2700
 Sc1_A1_n30 Sc3+    0.000000    0.000000    0.058000    2.000000 Uiso  1.0000
 Cl1_A1_n30 Cl1-    0.242100    0.768700    0.058000    2.000000 Uiso  1.0000
 Cl2_A1_n30 Cl1-    0.757900    0.231300    0.058000    2.000000 Uiso  1.0000
 Cl3_A1_n30 Cl1-    0.238700    0.237100    0.058322    2.000000 Uiso  1.0000
 Cl4_A1_n30 Cl1-    0.761300    0.762900    0.058322    2.000000 Uiso  1.0000
 Cl5_A1_n30 Cl1-    0.238700    0.237100    0.057678    2.000000 Uiso  1.0000
 Cl6_A1_n30 Cl1-    0.761300    0.762900    0.057678    2.000000 Uiso  1.0000
 Li3_A1_n30 Li+    0.500000    0.500000    0.058000    2.000000 Uiso  0.2700
 Sc1_A1_n31 Sc3+    0.000000    0.000000    0.060000    2.000000 Uiso  1.0000
 Cl1_A1_n31 Cl1-    0.242100    0.768700    0.060000    2.000000 Uiso  1.0000
 Cl2_A1_n31 Cl1-    0.757900    0.231300    0.060000    2.000000 Uiso  1.0000
 Cl3_A1_n31 Cl1-    0.238700    0.237100    0.060322    2.000000 Uiso  1.0000
 Cl4_A1_n31 Cl1-    0.761300    0.762900    0.060322    2.000000 Uiso  1.0000
 Cl5_A1_n31 Cl1-    0.238700    0.237100    0.059678    2.000000 Uiso  1.0000
 Cl6_A1_n31 Cl1-    0.761300    0.762900    0.059678    2.000000 Uiso  1.0000
 Li3_A1_n31 Li+    0.500000    0.500000    0.060000    2.000000 Uiso  0.2700
 Sc1_A1_n32 Sc3+    0.000000    0.000000    0.062000    2.000000 Uiso  1.0000
 Cl1_A1_n32 Cl1-    0.242100    0.768700    0.062000    2.000000 Uiso  1.0000
 Cl2_A1_n32 Cl1-    0.757900    0.231300    0.062000    2.000000 Uiso  1.0000
 Cl3_A1_n32 Cl1-    0.238700    0.237100    0.062322    2.000000 Uiso  1.0000
 Cl4_A1_n32 Cl1-    0.761300    0.762900    0.062322    2.000000 Uiso  1.0000
 Cl5_A1_n32 Cl1-    0.238700    0.237100    0.061678    2.000000 Uiso  1.0000
 Cl6_A1_n32 Cl1-    0.761300    0.762900    0.061678    2.000000 Uiso  1.0000
 Li3_A1_n32 Li+    0.500000    0.500000    0.062000    2.000000 Uiso  0.2700
 Sc1_A1_n33 Sc3+    0.000000    0.000000    0.064000    2.000000 Uiso  1.0000
 Cl1_A1_n33 Cl1-    0.242100    0.768700    0.064000    2.000000 Uiso  1.0000
 Cl2_A1_n33 Cl1-    0.757900    0.231300    0.064000    2.000000 Uiso  1.0000
 Cl3_A1_n33 Cl1-    0.238700    0.237100    0.064322    2.000000 Uiso  1.0000
 Cl4_A1_n33 Cl1-    0.761300    0.762900    0.064322    2.000000 Uiso  1.0000
 Cl5_A1_n33 Cl1-    0.238700    0.237100    0.063678    2.000000 Uiso  1.0000
 Cl6_A1_n33 Cl1-    0.761300    0.762900    0.063678    2.000000 Uiso  1.0000
 Li3_A1_n33 Li+    0.500000    0.500000    0.064000    2.000000 Uiso  0.2700
 Sc1_A1_n34 Sc3+    0.000000    0.000000    0.066000    2.000000 Uiso  1.0000
 Cl1_A1_n34 Cl1-    0.242100    0.768700    0.066000    2.000000 Uiso  1.0000
 Cl2_A1_n34 Cl1-    0.757900    0.231300    0.066000    2.000000 Uiso  1.0000
 Cl3_A1_n34 Cl1-    0.238700    0.237100    0.066322    2.000000 Uiso  1.0000
 Cl4_A1_n34 Cl1-    0.761300    0.762900    0.066322    2.000000 Uiso  1.0000
 Cl5_A1_n34 Cl1-    0.238700    0.237100    0.065678    2.000000 Uiso  1.0000
 Cl6_A1_n34 Cl1-    0.761300    0.762900    0.065678    2.000000 Uiso  1.0000
 Li3_A1_n34 Li+    0.500000    0.500000    0.066000    2.000000 Uiso  0.2700
 Sc1_A1_n35 Sc3+    0.000000    0.000000    0.068000    2.000000 Uiso  1.0000
 Cl1_A1_n35 Cl1-    0.242100    0.768700    0.068000    2.000000 Uiso  1.0000
 Cl2_A1_n35 Cl1-    0.757900    0.231300    0.068000    2.000000 Uiso  1.0000
 Cl3_A1_n35 Cl1-    0.238700    0.237100    0.068322    2.000000 Uiso  1.0000
 Cl4_A1_n35 Cl1-    0.761300    0.762900    0.068322    2.000000 Uiso  1.0000
 Cl5_A1_n35 Cl1-    0.238700    0.237100    0.067678    2.000000 Uiso  1.0000
 Cl6_A1_n35 Cl1-    0.761300    0.762900    0.067678    2.000000 Uiso  1.0000
 Li3_A1_n35 Li+    0.500000    0.500000    0.068000    2.000000 Uiso  0.2700
 Sc1_A1_n36 Sc3+    0.000000    0.000000    0.070000    2.000000 Uiso  1.0000
 Cl1_A1_n36 Cl1-    0.242100    0.768700    0.070000    2.000000 Uiso  1.0000
 Cl2_A1_n36 Cl1-    0.757900    0.231300    0.070000    2.000000 Uiso  1.0000
 Cl3_A1_n36 Cl1-    0.238700    0.237100    0.070322    2.000000 Uiso  1.0000
 Cl4_A1_n36 Cl1-    0.761300    0.762900    0.070322    2.000000 Uiso  1.0000
 Cl5_A1_n36 Cl1-    0.238700    0.237100    0.069678    2.000000 Uiso  1.0000
 Cl6_A1_n36 Cl1-    0.761300    0.762900    0.069678    2.000000 Uiso  1.0000
 Li3_A1_n36 Li+    0.500000    0.500000    0.070000    2.000000 Uiso  0.2700
 Sc1_A1_n37 Sc3+    0.000000    0.000000    0.072000    2.000000 Uiso  1.0000
 Cl1_A1_n37 Cl1-    0.242100    0.768700    0.072000    2.000000 Uiso  1.0000
 Cl2_A1_n37 Cl1-    0.757900    0.231300    0.072000    2.000000 Uiso  1.0000
 Cl3_A1_n37 Cl1-    0.238700    0.237100    0.072322    2.000000 Uiso  1.0000
 Cl4_A1_n37 Cl1-    0.761300    0.762900    0.072322    2.000000 Uiso  1.0000
 Cl5_A1_n37 Cl1-    0.238700    0.237100    0.071678    2.000000 Uiso  1.0000
 Cl6_A1_n37 Cl1-    0.761300    0.762900    0.071678    2.000000 Uiso  1.0000
 Li3_A1_n37 Li+    0.500000    0.500000    0.072000    2.000000 Uiso  0.2700
 Sc1_A1_n38 Sc3+    0.000000    0.000000    0.074000    2.000000 Uiso  1.0000
 Cl1_A1_n38 Cl1-    0.242100    0.768700    0.074000    2.000000 Uiso  1.0000
 Cl2_A1_n38 Cl1-    0.757900    0.231300    0.074000    2.000000 Uiso  1.0000
 Cl3_A1_n38 Cl1-    0.238700    0.237100    0.074322    2.000000 Uiso  1.0000
 Cl4_A1_n38 Cl1-    0.761300    0.762900    0.074322    2.000000 Uiso  1.0000
 Cl5_A1_n38 Cl1-    0.238700    0.237100    0.073678    2.000000 Uiso  1.0000
 Cl6_A1_n38 Cl1-    0.761300    0.762900    0.073678    2.000000 Uiso  1.0000
 Li3_A1_n38 Li+    0.500000    0.500000    0.074000    2.000000 Uiso  0.2700
 Sc1_A1_n39 Sc3+    0.000000    0.000000    0.076000    2.000000 Uiso  1.0000
 Cl1_A1_n39 Cl1-    0.242100    0.768700    0.076000    2.000000 Uiso  1.0000
 Cl2_A1_n39 Cl1-    0.757900    0.231300    0.076000    2.000000 Uiso  1.0000
 Cl3_A1_n39 Cl1-    0.238700    0.237100    0.076322    2.000000 Uiso  1.0000
 Cl4_A1_n39 Cl1-    0.761300    0.762900    0.076322    2.000000 Uiso  1.0000
 Cl5_A1_n39 Cl1-    0.238700    0.237100    0.075678    2.000000 Uiso  1.0000
 Cl6_A1_n39 Cl1-    0.761300    0.762900    0.075678    2.000000 Uiso  1.0000
 Li3_A1_n39 Li+    0.500000    0.500000    0.076000    2.000000 Uiso  0.2700
 Sc1_A1_n40 Sc3+    0.000000    0.000000    0.078000    2.000000 Uiso  1.0000
 Cl1_A1_n40 Cl1-    0.242100    0.768700    0.078000    2.000000 Uiso  1.0000
 Cl2_A1_n40 Cl1-    0.757900    0.231300    0.078000    2.000000 Uiso  1.0000
 Cl3_A1_n40 Cl1-    0.238700    0.237100    0.078322    2.000000 Uiso  1.0000
 Cl4_A1_n40 Cl1-    0.761300    0.762900    0.078322    2.000000 Uiso  1.0000
 Cl5_A1_n40 Cl1-    0.238700    0.237100    0.077678    2.000000 Uiso  1.0000
 Cl6_A1_n40 Cl1-    0.761300    0.762900    0.077678    2.000000 Uiso  1.0000
 Li3_A1_n40 Li+    0.500000    0.500000    0.078000    2.000000 Uiso  0.2700
 Sc1_A1_n41 Sc3+    0.000000    0.000000    0.080000    2.000000 Uiso  1.0000
 Cl1_A1_n41 Cl1-    0.242100    0.768700    0.080000    2.000000 Uiso  1.0000
 Cl2_A1_n41 Cl1-    0.757900    0.231300    0.080000    2.000000 Uiso  1.0000
 Cl3_A1_n41 Cl1-    0.238700    0.237100    0.080322    2.000000 Uiso  1.0000
 Cl4_A1_n41 Cl1-    0.761300    0.762900    0.080322    2.000000 Uiso  1.0000
 Cl5_A1_n41 Cl1-    0.238700    0.237100    0.079678    2.000000 Uiso  1.0000
 Cl6_A1_n41 Cl1-    0.761300    0.762900    0.079678    2.000000 Uiso  1.0000
 Li3_A1_n41 Li+    0.500000    0.500000    0.080000    2.000000 Uiso  0.2700
 Sc1_A1_n42 Sc3+    0.000000    0.000000    0.082000    2.000000 Uiso  1.0000
 Cl1_A1_n42 Cl1-    0.242100    0.768700    0.082000    2.000000 Uiso  1.0000
 Cl2_A1_n42 Cl1-    0.757900    0.231300    0.082000    2.000000 Uiso  1.0000
 Cl3_A1_n42 Cl1-    0.238700    0.237100    0.082322    2.000000 Uiso  1.0000
 Cl4_A1_n42 Cl1-    0.761300    0.762900    0.082322    2.000000 Uiso  1.0000
 Cl5_A1_n42 Cl1-    0.238700    0.237100    0.081678    2.000000 Uiso  1.0000
 Cl6_A1_n42 Cl1-    0.761300    0.762900    0.081678    2.000000 Uiso  1.0000
 Li3_A1_n42 Li+    0.500000    0.500000    0.082000    2.000000 Uiso  0.2700
 Sc1_A1_n43 Sc3+    0.000000    0.000000    0.084000    2.000000 Uiso  1.0000
 Cl1_A1_n43 Cl1-    0.242100    0.768700    0.084000    2.000000 Uiso  1.0000
 Cl2_A1_n43 Cl1-    0.757900    0.231300    0.084000    2.000000 Uiso  1.0000
 Cl3_A1_n43 Cl1-    0.238700    0.237100    0.084322    2.000000 Uiso  1.0000
 Cl4_A1_n43 Cl1-    0.761300    0.762900    0.084322    2.000000 Uiso  1.0000
 Cl5_A1_n43 Cl1-    0.238700    0.237100    0.083678    2.000000 Uiso  1.0000
 Cl6_A1_n43 Cl1-    0.761300    0.762900    0.083678    2.000000 Uiso  1.0000
 Li3_A1_n43 Li+    0.500000    0.500000    0.084000    2.000000 Uiso  0.2700
 Sc1_A1_n44 Sc3+    0.000000    0.000000    0.086000    2.000000 Uiso  1.0000
 Cl1_A1_n44 Cl1-    0.242100    0.768700    0.086000    2.000000 Uiso  1.0000
 Cl2_A1_n44 Cl1-    0.757900    0.231300    0.086000    2.000000 Uiso  1.0000
 Cl3_A1_n44 Cl1-    0.238700    0.237100    0.086322    2.000000 Uiso  1.0000
 Cl4_A1_n44 Cl1-    0.761300    0.762900    0.086322    2.000000 Uiso  1.0000
 Cl5_A1_n44 Cl1-    0.238700    0.237100    0.085678    2.000000 Uiso  1.0000
 Cl6_A1_n44 Cl1-    0.761300    0.762900    0.085678    2.000000 Uiso  1.0000
 Li3_A1_n44 Li+    0.500000    0.500000    0.086000    2.000000 Uiso  0.2700
 Sc1_A1_n45 Sc3+    0.000000    0.000000    0.088000    2.000000 Uiso  1.0000
 Cl1_A1_n45 Cl1-    0.242100    0.768700    0.088000    2.000000 Uiso  1.0000
 Cl2_A1_n45 Cl1-    0.757900    0.231300    0.088000    2.000000 Uiso  1.0000
 Cl3_A1_n45 Cl1-    0.238700    0.237100    0.088322    2.000000 Uiso  1.0000
 Cl4_A1_n45 Cl1-    0.761300    0.762900    0.088322    2.000000 Uiso  1.0000
 Cl5_A1_n45 Cl1-    0.238700    0.237100    0.087678    2.000000 Uiso  1.0000
 Cl6_A1_n45 Cl1-    0.761300    0.762900    0.087678    2.000000 Uiso  1.0000
 Li3_A1_n45 Li+    0.500000    0.500000    0.088000    2.000000 Uiso  0.2700
 Sc1_A1_n46 Sc3+    0.000000    0.000000    0.090000    2.000000 Uiso  1.0000
 Cl1_A1_n46 Cl1-    0.242100    0.768700    0.090000    2.000000 Uiso  1.0000
 Cl2_A1_n46 Cl1-    0.757900    0.231300    0.090000    2.000000 Uiso  1.0000
 Cl3_A1_n46 Cl1-    0.238700    0.237100    0.090322    2.000000 Uiso  1.0000
 Cl4_A1_n46 Cl1-    0.761300    0.762900    0.090322    2.000000 Uiso  1.0000
 Cl5_A1_n46 Cl1-    0.238700    0.237100    0.089678    2.000000 Uiso  1.0000
 Cl6_A1_n46 Cl1-    0.761300    0.762900    0.089678    2.000000 Uiso  1.0000
 Li3_A1_n46 Li+    0.500000    0.500000    0.090000    2.000000 Uiso  0.2700
 Sc1_A1_n47 Sc3+    0.000000    0.000000    0.092000    2.000000 Uiso  1.0000
 Cl1_A1_n47 Cl1-    0.242100    0.768700    0.092000    2.000000 Uiso  1.0000
 Cl2_A1_n47 Cl1-    0.757900    0.231300    0.092000    2.000000 Uiso  1.0000
 Cl3_A1_n47 Cl1-    0.238700    0.237100    0.092322    2.000000 Uiso  1.0000
 Cl4_A1_n47 Cl1-    0.761300    0.762900    0.092322    2.000000 Uiso  1.0000
 Cl5_A1_n47 Cl1-    0.238700    0.237100    0.091678    2.000000 Uiso  1.0000
 Cl6_A1_n47 Cl1-    0.761300    0.762900    0.091678    2.000000 Uiso  1.0000
 Li3_A1_n47 Li+    0.500000    0.500000    0.092000    2.000000 Uiso  0.2700
 Sc1_A1_n48 Sc3+    0.000000    0.000000    0.094000    2.000000 Uiso  1.0000
 Cl1_A1_n48 Cl1-    0.242100    0.768700    0.094000    2.000000 Uiso  1.0000
 Cl2_A1_n48 Cl1-    0.757900    0.231300    0.094000    2.000000 Uiso  1.0000
 Cl3_A1_n48 Cl1-    0.238700    0.237100    0.094322    2.000000 Uiso  1.0000
 Cl4_A1_n48 Cl1-    0.761300    0.762900    0.094322    2.000000 Uiso  1.0000
 Cl5_A1_n48 Cl1-    0.238700    0.237100    0.093678    2.000000 Uiso  1.0000
 Cl6_A1_n48 Cl1-    0.761300    0.762900    0.093678    2.000000 Uiso  1.0000
 Li3_A1_n48 Li+    0.500000    0.500000    0.094000    2.000000 Uiso  0.2700
 Sc1_A1_n49 Sc3+    0.000000    0.000000    0.096000    2.000000 Uiso  1.0000
 Cl1_A1_n49 Cl1-    0.242100    0.768700    0.096000    2.000000 Uiso  1.0000
 Cl2_A1_n49 Cl1-    0.757900    0.231300    0.096000    2.000000 Uiso  1.0000
 Cl3_A1_n49 Cl1-    0.238700    0.237100    0.096322    2.000000 Uiso  1.0000
 Cl4_A1_n49 Cl1-    0.761300    0.762900    0.096322    2.000000 Uiso  1.0000
 Cl5_A1_n49 Cl1-    0.238700    0.237100    0.095678    2.000000 Uiso  1.0000
 Cl6_A1_n49 Cl1-    0.761300    0.762900    0.095678    2.000000 Uiso  1.0000
 Li3_A1_n49 Li+    0.500000    0.500000    0.096000    2.000000 Uiso  0.2700
 Sc1_A1_n50 Sc3+    0.000000    0.000000    0.098000    2.000000 Uiso  1.0000
 Cl1_A1_n50 Cl1-    0.242100    0.768700    0.098000    2.000000 Uiso  1.0000
 Cl2_A1_n50 Cl1-    0.757900    0.231300    0.098000    2.000000 Uiso  1.0000
 Cl3_A1_n50 Cl1-    0.238700    0.237100    0.098322    2.000000 Uiso  1.0000
 Cl4_A1_n50 Cl1-    0.761300    0.762900    0.098322    2.000000 Uiso  1.0000
 Cl5_A1_n50 Cl1-    0.238700    0.237100    0.097678    2.000000 Uiso  1.0000
 Cl6_A1_n50 Cl1-    0.761300    0.762900    0.097678    2.000000 Uiso  1.0000
 Li3_A1_n50 Li+    0.500000    0.500000    0.098000    2.000000 Uiso  0.2700
 Sc1_A1_n51 Sc3+    0.000000    0.000000    0.100000    2.000000 Uiso  1.0000
 Cl1_A1_n51 Cl1-    0.242100    0.768700    0.100000    2.000000 Uiso  1.0000
 Cl2_A1_n51 Cl1-    0.757900    0.231300    0.100000    2.000000 Uiso  1.0000
 Cl3_A1_n51 Cl1-    0.238700    0.237100    0.100322    2.000000 Uiso  1.0000
 Cl4_A1_n51 Cl1-    0.761300    0.762900    0.100322    2.000000 Uiso  1.0000
 Cl5_A1_n51 Cl1-    0.238700    0.237100    0.099678    2.000000 Uiso  1.0000
 Cl6_A1_n51 Cl1-    0.761300    0.762900    0.099678    2.000000 Uiso  1.0000
 Li3_A1_n51 Li+    0.500000    0.500000    0.100000    2.000000 Uiso  0.2700
 Sc1_A1_n52 Sc3+    0.000000    0.000000    0.102000    2.000000 Uiso  1.0000
 Cl1_A1_n52 Cl1-    0.242100    0.768700    0.102000    2.000000 Uiso  1.0000
 Cl2_A1_n52 Cl1-    0.757900    0.231300    0.102000    2.000000 Uiso  1.0000
 Cl3_A1_n52 Cl1-    0.238700    0.237100    0.102322    2.000000 Uiso  1.0000
 Cl4_A1_n52 Cl1-    0.761300    0.762900    0.102322    2.000000 Uiso  1.0000
 Cl5_A1_n52 Cl1-    0.238700    0.237100    0.101678    2.000000 Uiso  1.0000
 Cl6_A1_n52 Cl1-    0.761300    0.762900    0.101678    2.000000 Uiso  1.0000
 Li3_A1_n52 Li+    0.500000    0.500000    0.102000    2.000000 Uiso  0.2700
 Sc1_A1_n53 Sc3+    0.000000    0.000000    0.104000    2.000000 Uiso  1.0000
 Cl1_A1_n53 Cl1-    0.242100    0.768700    0.104000    2.000000 Uiso  1.0000
 Cl2_A1_n53 Cl1-    0.757900    0.231300    0.104000    2.000000 Uiso  1.0000
 Cl3_A1_n53 Cl1-    0.238700    0.237100    0.104322    2.000000 Uiso  1.0000
 Cl4_A1_n53 Cl1-    0.761300    0.762900    0.104322    2.000000 Uiso  1.0000
 Cl5_A1_n53 Cl1-    0.238700    0.237100    0.103678    2.000000 Uiso  1.0000
 Cl6_A1_n53 Cl1-    0.761300    0.762900    0.103678    2.000000 Uiso  1.0000
 Li3_A1_n53 Li+    0.500000    0.500000    0.104000    2.000000 Uiso  0.2700
 Sc1_A1_n54 Sc3+    0.000000    0.000000    0.106000    2.000000 Uiso  1.0000
 Cl1_A1_n54 Cl1-    0.242100    0.768700    0.106000    2.000000 Uiso  1.0000
 Cl2_A1_n54 Cl1-    0.757900    0.231300    0.106000    2.000000 Uiso  1.0000
 Cl3_A1_n54 Cl1-    0.238700    0.237100    0.106322    2.000000 Uiso  1.0000
 Cl4_A1_n54 Cl1-    0.761300    0.762900    0.106322    2.000000 Uiso  1.0000
 Cl5_A1_n54 Cl1-    0.238700    0.237100    0.105678    2.000000 Uiso  1.0000
 Cl6_A1_n54 Cl1-    0.761300    0.762900    0.105678    2.000000 Uiso  1.0000
 Li3_A1_n54 Li+    0.500000    0.500000    0.106000    2.000000 Uiso  0.2700
 Sc1_A1_n55 Sc3+    0.000000    0.000000    0.108000    2.000000 Uiso  1.0000
 Cl1_A1_n55 Cl1-    0.242100    0.768700    0.108000    2.000000 Uiso  1.0000
 Cl2_A1_n55 Cl1-    0.757900    0.231300    0.108000    2.000000 Uiso  1.0000
 Cl3_A1_n55 Cl1-    0.238700    0.237100    0.108322    2.000000 Uiso  1.0000
 Cl4_A1_n55 Cl1-    0.761300    0.762900    0.108322    2.000000 Uiso  1.0000
 Cl5_A1_n55 Cl1-    0.238700    0.237100    0.107678    2.000000 Uiso  1.0000
 Cl6_A1_n55 Cl1-    0.761300    0.762900    0.107678    2.000000 Uiso  1.0000
 Li3_A1_n55 Li+    0.500000    0.500000    0.108000    2.000000 Uiso  0.2700
 Sc1_A1_n56 Sc3+    0.000000    0.000000    0.110000    2.000000 Uiso  1.0000
 Cl1_A1_n56 Cl1-    0.242100    0.768700    0.110000    2.000000 Uiso  1.0000
 Cl2_A1_n56 Cl1-    0.757900    0.231300    0.110000    2.000000 Uiso  1.0000
 Cl3_A1_n56 Cl1-    0.238700    0.237100    0.110322    2.000000 Uiso  1.0000
 Cl4_A1_n56 Cl1-    0.761300    0.762900    0.110322    2.000000 Uiso  1.0000
 Cl5_A1_n56 Cl1-    0.238700    0.237100    0.109678    2.000000 Uiso  1.0000
 Cl6_A1_n56 Cl1-    0.761300    0.762900    0.109678    2.000000 Uiso  1.0000
 Li3_A1_n56 Li+    0.500000    0.500000    0.110000    2.000000 Uiso  0.2700
 Sc1_A1_n57 Sc3+    0.000000    0.000000    0.112000    2.000000 Uiso  1.0000
 Cl1_A1_n57 Cl1-    0.242100    0.768700    0.112000    2.000000 Uiso  1.0000
 Cl2_A1_n57 Cl1-    0.757900    0.231300    0.112000    2.000000 Uiso  1.0000
 Cl3_A1_n57 Cl1-    0.238700    0.237100    0.112322    2.000000 Uiso  1.0000
 Cl4_A1_n57 Cl1-    0.761300    0.762900    0.112322    2.000000 Uiso  1.0000
 Cl5_A1_n57 Cl1-    0.238700    0.237100    0.111678    2.000000 Uiso  1.0000
 Cl6_A1_n57 Cl1-    0.761300    0.762900    0.111678    2.000000 Uiso  1.0000
 Li3_A1_n57 Li+    0.500000    0.500000    0.112000    2.000000 Uiso  0.2700
 Sc1_A1_n58 Sc3+    0.000000    0.000000    0.114000    2.000000 Uiso  1.0000
 Cl1_A1_n58 Cl1-    0.242100    0.768700    0.114000    2.000000 Uiso  1.0000
 Cl2_A1_n58 Cl1-    0.757900    0.231300    0.114000    2.000000 Uiso  1.0000
 Cl3_A1_n58 Cl1-    0.238700    0.237100    0.114322    2.000000 Uiso  1.0000
 Cl4_A1_n58 Cl1-    0.761300    0.762900    0.114322    2.000000 Uiso  1.0000
 Cl5_A1_n58 Cl1-    0.238700    0.237100    0.113678    2.000000 Uiso  1.0000
 Cl6_A1_n58 Cl1-    0.761300    0.762900    0.113678    2.000000 Uiso  1.0000
 Li3_A1_n58 Li+    0.500000    0.500000    0.114000    2.000000 Uiso  0.2700
 Sc1_A1_n59 Sc3+    0.000000    0.000000    0.116000    2.000000 Uiso  1.0000
 Cl1_A1_n59 Cl1-    0.242100    0.768700    0.116000    2.000000 Uiso  1.0000
 Cl2_A1_n59 Cl1-    0.757900    0.231300    0.116000    2.000000 Uiso  1.0000
 Cl3_A1_n59 Cl1-    0.238700    0.237100    0.116322    2.000000 Uiso  1.0000
 Cl4_A1_n59 Cl1-    0.761300    0.762900    0.116322    2.000000 Uiso  1.0000
 Cl5_A1_n59 Cl1-    0.238700    0.237100    0.115678    2.000000 Uiso  1.0000
 Cl6_A1_n59 Cl1-    0.761300    0.762900    0.115678    2.000000 Uiso  1.0000
 Li3_A1_n59 Li+    0.500000    0.500000    0.116000    2.000000 Uiso  0.2700
 Sc1_A1_n60 Sc3+    0.000000    0.000000    0.118000    2.000000 Uiso  1.0000
 Cl1_A1_n60 Cl1-    0.242100    0.768700    0.118000    2.000000 Uiso  1.0000
 Cl2_A1_n60 Cl1-    0.757900    0.231300    0.118000    2.000000 Uiso  1.0000
 Cl3_A1_n60 Cl1-    0.238700    0.237100    0.118322    2.000000 Uiso  1.0000
 Cl4_A1_n60 Cl1-    0.761300    0.762900    0.118322    2.000000 Uiso  1.0000
 Cl5_A1_n60 Cl1-    0.238700    0.237100    0.117678    2.000000 Uiso  1.0000
 Cl6_A1_n60 Cl1-    0.761300    0.762900    0.117678    2.000000 Uiso  1.0000
 Li3_A1_n60 Li+    0.500000    0.500000    0.118000    2.000000 Uiso  0.2700
 Sc1_A1_n61 Sc3+    0.000000    0.000000    0.120000    2.000000 Uiso  1.0000
 Cl1_A1_n61 Cl1-    0.242100    0.768700    0.120000    2.000000 Uiso  1.0000
 Cl2_A1_n61 Cl1-    0.757900    0.231300    0.120000    2.000000 Uiso  1.0000
 Cl3_A1_n61 Cl1-    0.238700    0.237100    0.120322    2.000000 Uiso  1.0000
 Cl4_A1_n61 Cl1-    0.761300    0.762900    0.120322    2.000000 Uiso  1.0000
 Cl5_A1_n61 Cl1-    0.238700    0.237100    0.119678    2.000000 Uiso  1.0000
 Cl6_A1_n61 Cl1-    0.761300    0.762900    0.119678    2.000000 Uiso  1.0000
 Li3_A1_n61 Li+    0.500000    0.500000    0.120000    2.000000 Uiso  0.2700
 Sc1_A1_n62 Sc3+    0.000000    0.000000    0.122000    2.000000 Uiso  1.0000
 Cl1_A1_n62 Cl1-    0.242100    0.768700    0.122000    2.000000 Uiso  1.0000
 Cl2_A1_n62 Cl1-    0.757900    0.231300    0.122000    2.000000 Uiso  1.0000
 Cl3_A1_n62 Cl1-    0.238700    0.237100    0.122322    2.000000 Uiso  1.0000
 Cl4_A1_n62 Cl1-    0.761300    0.762900    0.122322    2.000000 Uiso  1.0000
 Cl5_A1_n62 Cl1-    0.238700    0.237100    0.121678    2.000000 Uiso  1.0000
 Cl6_A1_n62 Cl1-    0.761300    0.762900    0.121678    2.000000 Uiso  1.0000
 Li3_A1_n62 Li+    0.500000    0.500000    0.122000    2.000000 Uiso  0.2700
 Sc1_A1_n63 Sc3+    0.000000    0.000000    0.124000    2.000000 Uiso  1.0000
 Cl1_A1_n63 Cl1-    0.242100    0.768700    0.124000    2.000000 Uiso  1.0000
 Cl2_A1_n63 Cl1-    0.757900    0.231300    0.124000    2.000000 Uiso  1.0000
 Cl3_A1_n63 Cl1-    0.238700    0.237100    0.124322    2.000000 Uiso  1.0000
 Cl4_A1_n63 Cl1-    0.761300    0.762900    0.124322    2.000000 Uiso  1.0000
 Cl5_A1_n63 Cl1-    0.238700    0.237100    0.123678    2.000000 Uiso  1.0000
 Cl6_A1_n63 Cl1-    0.761300    0.762900    0.123678    2.000000 Uiso  1.0000
 Li3_A1_n63 Li+    0.500000    0.500000    0.124000    2.000000 Uiso  0.2700
 Sc1_A1_n64 Sc3+    0.000000    0.000000    0.126000    2.000000 Uiso  1.0000
 Cl1_A1_n64 Cl1-    0.242100    0.768700    0.126000    2.000000 Uiso  1.0000
 Cl2_A1_n64 Cl1-    0.757900    0.231300    0.126000    2.000000 Uiso  1.0000
 Cl3_A1_n64 Cl1-    0.238700    0.237100    0.126322    2.000000 Uiso  1.0000
 Cl4_A1_n64 Cl1-    0.761300    0.762900    0.126322    2.000000 Uiso  1.0000
 Cl5_A1_n64 Cl1-    0.238700    0.237100    0.125678    2.000000 Uiso  1.0000
 Cl6_A1_n64 Cl1-    0.761300    0.762900    0.125678    2.000000 Uiso  1.0000
 Li3_A1_n64 Li+    0.500000    0.500000    0.126000    2.000000 Uiso  0.2700
 Sc1_A1_n65 Sc3+    0.000000    0.000000    0.128000    2.000000 Uiso  1.0000
 Cl1_A1_n65 Cl1-    0.242100    0.768700    0.128000    2.000000 Uiso  1.0000
 Cl2_A1_n65 Cl1-    0.757900    0.231300    0.128000    2.000000 Uiso  1.0000
 Cl3_A1_n65 Cl1-    0.238700    0.237100    0.128322    2.000000 Uiso  1.0000
 Cl4_A1_n65 Cl1-    0.761300    0.762900    0.128322    2.000000 Uiso  1.0000
 Cl5_A1_n65 Cl1-    0.238700    0.237100    0.127678    2.000000 Uiso  1.0000
 Cl6_A1_n65 Cl1-    0.761300    0.762900    0.127678    2.000000 Uiso  1.0000
 Li3_A1_n65 Li+    0.500000    0.500000    0.128000    2.000000 Uiso  0.2700
 Sc1_A1_n66 Sc3+    0.000000    0.000000    0.130000    2.000000 Uiso  1.0000
 Cl1_A1_n66 Cl1-    0.242100    0.768700    0.130000    2.000000 Uiso  1.0000
 Cl2_A1_n66 Cl1-    0.757900    0.231300    0.130000    2.000000 Uiso  1.0000
 Cl3_A1_n66 Cl1-    0.238700    0.237100    0.130322    2.000000 Uiso  1.0000
 Cl4_A1_n66 Cl1-    0.761300    0.762900    0.130322    2.000000 Uiso  1.0000
 Cl5_A1_n66 Cl1-    0.238700    0.237100    0.129678    2.000000 Uiso  1.0000
 Cl6_A1_n66 Cl1-    0.761300    0.762900    0.129678    2.000000 Uiso  1.0000
 Li3_A1_n66 Li+    0.500000    0.500000    0.130000    2.000000 Uiso  0.2700
 Sc1_A1_n67 Sc3+    0.000000    0.000000    0.132000    2.000000 Uiso  1.0000
 Cl1_A1_n67 Cl1-    0.242100    0.768700    0.132000    2.000000 Uiso  1.0000
 Cl2_A1_n67 Cl1-    0.757900    0.231300    0.132000    2.000000 Uiso  1.0000
 Cl3_A1_n67 Cl1-    0.238700    0.237100    0.132322    2.000000 Uiso  1.0000
 Cl4_A1_n67 Cl1-    0.761300    0.762900    0.132322    2.000000 Uiso  1.0000
 Cl5_A1_n67 Cl1-    0.238700    0.237100    0.131678    2.000000 Uiso  1.0000
 Cl6_A1_n67 Cl1-    0.761300    0.762900    0.131678    2.000000 Uiso  1.0000
 Li3_A1_n67 Li+    0.500000    0.500000    0.132000    2.000000 Uiso  0.2700
 Sc1_A1_n68 Sc3+    0.000000    0.000000    0.134000    2.000000 Uiso  1.0000
 Cl1_A1_n68 Cl1-    0.242100    0.768700    0.134000    2.000000 Uiso  1.0000
 Cl2_A1_n68 Cl1-    0.757900    0.231300    0.134000    2.000000 Uiso  1.0000
 Cl3_A1_n68 Cl1-    0.238700    0.237100    0.134322    2.000000 Uiso  1.0000
 Cl4_A1_n68 Cl1-    0.761300    0.762900    0.134322    2.000000 Uiso  1.0000
 Cl5_A1_n68 Cl1-    0.238700    0.237100    0.133678    2.000000 Uiso  1.0000
 Cl6_A1_n68 Cl1-    0.761300    0.762900    0.133678    2.000000 Uiso  1.0000
 Li3_A1_n68 Li+    0.500000    0.500000    0.134000    2.000000 Uiso  0.2700
 Sc1_A1_n69 Sc3+    0.000000    0.000000    0.136000    2.000000 Uiso  1.0000
 Cl1_A1_n69 Cl1-    0.242100    0.768700    0.136000    2.000000 Uiso  1.0000
 Cl2_A1_n69 Cl1-    0.757900    0.231300    0.136000    2.000000 Uiso  1.0000
 Cl3_A1_n69 Cl1-    0.238700    0.237100    0.136322    2.000000 Uiso  1.0000
 Cl4_A1_n69 Cl1-    0.761300    0.762900    0.136322    2.000000 Uiso  1.0000
 Cl5_A1_n69 Cl1-    0.238700    0.237100    0.135678    2.000000 Uiso  1.0000
 Cl6_A1_n69 Cl1-    0.761300    0.762900    0.135678    2.000000 Uiso  1.0000
 Li3_A1_n69 Li+    0.500000    0.500000    0.136000    2.000000 Uiso  0.2700
 Sc1_A1_n70 Sc3+    0.000000    0.000000    0.138000    2.000000 Uiso  1.0000
 Cl1_A1_n70 Cl1-    0.242100    0.768700    0.138000    2.000000 Uiso  1.0000
 Cl2_A1_n70 Cl1-    0.757900    0.231300    0.138000    2.000000 Uiso  1.0000
 Cl3_A1_n70 Cl1-    0.238700    0.237100    0.138322    2.000000 Uiso  1.0000
 Cl4_A1_n70 Cl1-    0.761300    0.762900    0.138322    2.000000 Uiso  1.0000
 Cl5_A1_n70 Cl1-    0.238700    0.237100    0.137678    2.000000 Uiso  1.0000
 Cl6_A1_n70 Cl1-    0.761300    0.762900    0.137678    2.000000 Uiso  1.0000
 Li3_A1_n70 Li+    0.500000    0.500000    0.138000    2.000000 Uiso  0.2700
 Sc1_A1_n71 Sc3+    0.000000    0.000000    0.140000    2.000000 Uiso  1.0000
 Cl1_A1_n71 Cl1-    0.242100    0.768700    0.140000    2.000000 Uiso  1.0000
 Cl2_A1_n71 Cl1-    0.757900    0.231300    0.140000    2.000000 Uiso  1.0000
 Cl3_A1_n71 Cl1-    0.238700    0.237100    0.140322    2.000000 Uiso  1.0000
 Cl4_A1_n71 Cl1-    0.761300    0.762900    0.140322    2.000000 Uiso  1.0000
 Cl5_A1_n71 Cl1-    0.238700    0.237100    0.139678    2.000000 Uiso  1.0000
 Cl6_A1_n71 Cl1-    0.761300    0.762900    0.139678    2.000000 Uiso  1.0000
 Li3_A1_n71 Li+    0.500000    0.500000    0.140000    2.000000 Uiso  0.2700
 Sc1_A1_n72 Sc3+    0.000000    0.000000    0.142000    2.000000 Uiso  1.0000
 Cl1_A1_n72 Cl1-    0.242100    0.768700    0.142000    2.000000 Uiso  1.0000
 Cl2_A1_n72 Cl1-    0.757900    0.231300    0.142000    2.000000 Uiso  1.0000
 Cl3_A1_n72 Cl1-    0.238700    0.237100    0.142322    2.000000 Uiso  1.0000
 Cl4_A1_n72 Cl1-    0.761300    0.762900    0.142322    2.000000 Uiso  1.0000
 Cl5_A1_n72 Cl1-    0.238700    0.237100    0.141678    2.000000 Uiso  1.0000
 Cl6_A1_n72 Cl1-    0.761300    0.762900    0.141678    2.000000 Uiso  1.0000
 Li3_A1_n72 Li+    0.500000    0.500000    0.142000    2.000000 Uiso  0.2700
 Sc1_A1_n73 Sc3+    0.000000    0.000000    0.144000    2.000000 Uiso  1.0000
 Cl1_A1_n73 Cl1-    0.242100    0.768700    0.144000    2.000000 Uiso  1.0000
 Cl2_A1_n73 Cl1-    0.757900    0.231300    0.144000    2.000000 Uiso  1.0000
 Cl3_A1_n73 Cl1-    0.238700    0.237100    0.144322    2.000000 Uiso  1.0000
 Cl4_A1_n73 Cl1-    0.761300    0.762900    0.144322    2.000000 Uiso  1.0000
 Cl5_A1_n73 Cl1-    0.238700    0.237100    0.143678    2.000000 Uiso  1.0000
 Cl6_A1_n73 Cl1-    0.761300    0.762900    0.143678    2.000000 Uiso  1.0000
 Li3_A1_n73 Li+    0.500000    0.500000    0.144000    2.000000 Uiso  0.2700
 Sc1_A1_n74 Sc3+    0.000000    0.000000    0.146000    2.000000 Uiso  1.0000
 Cl1_A1_n74 Cl1-    0.242100    0.768700    0.146000    2.000000 Uiso  1.0000
 Cl2_A1_n74 Cl1-    0.757900    0.231300    0.146000    2.000000 Uiso  1.0000
 Cl3_A1_n74 Cl1-    0.238700    0.237100    0.146322    2.000000 Uiso  1.0000
 Cl4_A1_n74 Cl1-    0.761300    0.762900    0.146322    2.000000 Uiso  1.0000
 Cl5_A1_n74 Cl1-    0.238700    0.237100    0.145678    2.000000 Uiso  1.0000
 Cl6_A1_n74 Cl1-    0.761300    0.762900    0.145678    2.000000 Uiso  1.0000
 Li3_A1_n74 Li+    0.500000    0.500000    0.146000    2.000000 Uiso  0.2700
 Sc1_A1_n75 Sc3+    0.000000    0.000000    0.148000    2.000000 Uiso  1.0000
 Cl1_A1_n75 Cl1-    0.242100    0.768700    0.148000    2.000000 Uiso  1.0000
 Cl2_A1_n75 Cl1-    0.757900    0.231300    0.148000    2.000000 Uiso  1.0000
 Cl3_A1_n75 Cl1-    0.238700    0.237100    0.148322    2.000000 Uiso  1.0000
 Cl4_A1_n75 Cl1-    0.761300    0.762900    0.148322    2.000000 Uiso  1.0000
 Cl5_A1_n75 Cl1-    0.238700    0.237100    0.147678    2.000000 Uiso  1.0000
 Cl6_A1_n75 Cl1-    0.761300    0.762900    0.147678    2.000000 Uiso  1.0000
 Li3_A1_n75 Li+    0.500000    0.500000    0.148000    2.000000 Uiso  0.2700
 Sc1_A1_n76 Sc3+    0.000000    0.000000    0.150000    2.000000 Uiso  1.0000
 Cl1_A1_n76 Cl1-    0.242100    0.768700    0.150000    2.000000 Uiso  1.0000
 Cl2_A1_n76 Cl1-    0.757900    0.231300    0.150000    2.000000 Uiso  1.0000
 Cl3_A1_n76 Cl1-    0.238700    0.237100    0.150322    2.000000 Uiso  1.0000
 Cl4_A1_n76 Cl1-    0.761300    0.762900    0.150322    2.000000 Uiso  1.0000
 Cl5_A1_n76 Cl1-    0.238700    0.237100    0.149678    2.000000 Uiso  1.0000
 Cl6_A1_n76 Cl1-    0.761300    0.762900    0.149678    2.000000 Uiso  1.0000
 Li3_A1_n76 Li+    0.500000    0.500000    0.150000    2.000000 Uiso  0.2700
 Sc1_A1_n77 Sc3+    0.000000    0.000000    0.152000    2.000000 Uiso  1.0000
 Cl1_A1_n77 Cl1-    0.242100    0.768700    0.152000    2.000000 Uiso  1.0000
 Cl2_A1_n77 Cl1-    0.757900    0.231300    0.152000    2.000000 Uiso  1.0000
 Cl3_A1_n77 Cl1-    0.238700    0.237100    0.152322    2.000000 Uiso  1.0000
 Cl4_A1_n77 Cl1-    0.761300    0.762900    0.152322    2.000000 Uiso  1.0000
 Cl5_A1_n77 Cl1-    0.238700    0.237100    0.151678    2.000000 Uiso  1.0000
 Cl6_A1_n77 Cl1-    0.761300    0.762900    0.151678    2.000000 Uiso  1.0000
 Li3_A1_n77 Li+    0.500000    0.500000    0.152000    2.000000 Uiso  0.2700
 Sc1_A1_n78 Sc3+    0.000000    0.000000    0.154000    2.000000 Uiso  1.0000
 Cl1_A1_n78 Cl1-    0.242100    0.768700    0.154000    2.000000 Uiso  1.0000
 Cl2_A1_n78 Cl1-    0.757900    0.231300    0.154000    2.000000 Uiso  1.0000
 Cl3_A1_n78 Cl1-    0.238700    0.237100    0.154322    2.000000 Uiso  1.0000
 Cl4_A1_n78 Cl1-    0.761300    0.762900    0.154322    2.000000 Uiso  1.0000
 Cl5_A1_n78 Cl1-    0.238700    0.237100    0.153678    2.000000 Uiso  1.0000
 Cl6_A1_n78 Cl1-    0.761300    0.762900    0.153678    2.000000 Uiso  1.0000
 Li3_A1_n78 Li+    0.500000    0.500000    0.154000    2.000000 Uiso  0.2700
 Sc1_A1_n79 Sc3+    0.000000    0.000000    0.156000    2.000000 Uiso  1.0000
 Cl1_A1_n79 Cl1-    0.242100    0.768700    0.156000    2.000000 Uiso  1.0000
 Cl2_A1_n79 Cl1-    0.757900    0.231300    0.156000    2.000000 Uiso  1.0000
 Cl3_A1_n79 Cl1-    0.238700    0.237100    0.156322    2.000000 Uiso  1.0000
 Cl4_A1_n79 Cl1-    0.761300    0.762900    0.156322    2.000000 Uiso  1.0000
 Cl5_A1_n79 Cl1-    0.238700    0.237100    0.155678    2.000000 Uiso  1.0000
 Cl6_A1_n79 Cl1-    0.761300    0.762900    0.155678    2.000000 Uiso  1.0000
 Li3_A1_n79 Li+    0.500000    0.500000    0.156000    2.000000 Uiso  0.2700
 Sc1_A1_n80 Sc3+    0.000000    0.000000    0.158000    2.000000 Uiso  1.0000
 Cl1_A1_n80 Cl1-    0.242100    0.768700    0.158000    2.000000 Uiso  1.0000
 Cl2_A1_n80 Cl1-    0.757900    0.231300    0.158000    2.000000 Uiso  1.0000
 Cl3_A1_n80 Cl1-    0.238700    0.237100    0.158322    2.000000 Uiso  1.0000
 Cl4_A1_n80 Cl1-    0.761300    0.762900    0.158322    2.000000 Uiso  1.0000
 Cl5_A1_n80 Cl1-    0.238700    0.237100    0.157678    2.000000 Uiso  1.0000
 Cl6_A1_n80 Cl1-    0.761300    0.762900    0.157678    2.000000 Uiso  1.0000
 Li3_A1_n80 Li+    0.500000    0.500000    0.158000    2.000000 Uiso  0.2700
 Sc1_A1_n81 Sc3+    0.000000    0.000000    0.160000    2.000000 Uiso  1.0000
 Cl1_A1_n81 Cl1-    0.242100    0.768700    0.160000    2.000000 Uiso  1.0000
 Cl2_A1_n81 Cl1-    0.757900    0.231300    0.160000    2.000000 Uiso  1.0000
 Cl3_A1_n81 Cl1-    0.238700    0.237100    0.160322    2.000000 Uiso  1.0000
 Cl4_A1_n81 Cl1-    0.761300    0.762900    0.160322    2.000000 Uiso  1.0000
 Cl5_A1_n81 Cl1-    0.238700    0.237100    0.159678    2.000000 Uiso  1.0000
 Cl6_A1_n81 Cl1-    0.761300    0.762900    0.159678    2.000000 Uiso  1.0000
 Li3_A1_n81 Li+    0.500000    0.500000    0.160000    2.000000 Uiso  0.2700
 Sc1_A1_n82 Sc3+    0.000000    0.000000    0.162000    2.000000 Uiso  1.0000
 Cl1_A1_n82 Cl1-    0.242100    0.768700    0.162000    2.000000 Uiso  1.0000
 Cl2_A1_n82 Cl1-    0.757900    0.231300    0.162000    2.000000 Uiso  1.0000
 Cl3_A1_n82 Cl1-    0.238700    0.237100    0.162322    2.000000 Uiso  1.0000
 Cl4_A1_n82 Cl1-    0.761300    0.762900    0.162322    2.000000 Uiso  1.0000
 Cl5_A1_n82 Cl1-    0.238700    0.237100    0.161678    2.000000 Uiso  1.0000
 Cl6_A1_n82 Cl1-    0.761300    0.762900    0.161678    2.000000 Uiso  1.0000
 Li3_A1_n82 Li+    0.500000    0.500000    0.162000    2.000000 Uiso  0.2700
 Sc1_A1_n83 Sc3+    0.000000    0.000000    0.164000    2.000000 Uiso  1.0000
 Cl1_A1_n83 Cl1-    0.242100    0.768700    0.164000    2.000000 Uiso  1.0000
 Cl2_A1_n83 Cl1-    0.757900    0.231300    0.164000    2.000000 Uiso  1.0000
 Cl3_A1_n83 Cl1-    0.238700    0.237100    0.164322    2.000000 Uiso  1.0000
 Cl4_A1_n83 Cl1-    0.761300    0.762900    0.164322    2.000000 Uiso  1.0000
 Cl5_A1_n83 Cl1-    0.238700    0.237100    0.163678    2.000000 Uiso  1.0000
 Cl6_A1_n83 Cl1-    0.761300    0.762900    0.163678    2.000000 Uiso  1.0000
 Li3_A1_n83 Li+    0.500000    0.500000    0.164000    2.000000 Uiso  0.2700
 Sc1_A1_n84 Sc3+    0.000000    0.000000    0.166000    2.000000 Uiso  1.0000
 Cl1_A1_n84 Cl1-    0.242100    0.768700    0.166000    2.000000 Uiso  1.0000
 Cl2_A1_n84 Cl1-    0.757900    0.231300    0.166000    2.000000 Uiso  1.0000
 Cl3_A1_n84 Cl1-    0.238700    0.237100    0.166322    2.000000 Uiso  1.0000
 Cl4_A1_n84 Cl1-    0.761300    0.762900    0.166322    2.000000 Uiso  1.0000
 Cl5_A1_n84 Cl1-    0.238700    0.237100    0.165678    2.000000 Uiso  1.0000
 Cl6_A1_n84 Cl1-    0.761300    0.762900    0.165678    2.000000 Uiso  1.0000
 Li3_A1_n84 Li+    0.500000    0.500000    0.166000    2.000000 Uiso  0.2700
 Sc1_A1_n85 Sc3+    0.000000    0.000000    0.168000    2.000000 Uiso  1.0000
 Cl1_A1_n85 Cl1-    0.242100    0.768700    0.168000    2.000000 Uiso  1.0000
 Cl2_A1_n85 Cl1-    0.757900    0.231300    0.168000    2.000000 Uiso  1.0000
 Cl3_A1_n85 Cl1-    0.238700    0.237100    0.168322    2.000000 Uiso  1.0000
 Cl4_A1_n85 Cl1-    0.761300    0.762900    0.168322    2.000000 Uiso  1.0000
 Cl5_A1_n85 Cl1-    0.238700    0.237100    0.167678    2.000000 Uiso  1.0000
 Cl6_A1_n85 Cl1-    0.761300    0.762900    0.167678    2.000000 Uiso  1.0000
 Li3_A1_n85 Li+    0.500000    0.500000    0.168000    2.000000 Uiso  0.2700
 Sc1_A1_n86 Sc3+    0.000000    0.000000    0.170000    2.000000 Uiso  1.0000
 Cl1_A1_n86 Cl1-    0.242100    0.768700    0.170000    2.000000 Uiso  1.0000
 Cl2_A1_n86 Cl1-    0.757900    0.231300    0.170000    2.000000 Uiso  1.0000
 Cl3_A1_n86 Cl1-    0.238700    0.237100    0.170322    2.000000 Uiso  1.0000
 Cl4_A1_n86 Cl1-    0.761300    0.762900    0.170322    2.000000 Uiso  1.0000
 Cl5_A1_n86 Cl1-    0.238700    0.237100    0.169678    2.000000 Uiso  1.0000
 Cl6_A1_n86 Cl1-    0.761300    0.762900    0.169678    2.000000 Uiso  1.0000
 Li3_A1_n86 Li+    0.500000    0.500000    0.170000    2.000000 Uiso  0.2700
 Sc1_A1_n87 Sc3+    0.000000    0.000000    0.172000    2.000000 Uiso  1.0000
 Cl1_A1_n87 Cl1-    0.242100    0.768700    0.172000    2.000000 Uiso  1.0000
 Cl2_A1_n87 Cl1-    0.757900    0.231300    0.172000    2.000000 Uiso  1.0000
 Cl3_A1_n87 Cl1-    0.238700    0.237100    0.172322    2.000000 Uiso  1.0000
 Cl4_A1_n87 Cl1-    0.761300    0.762900    0.172322    2.000000 Uiso  1.0000
 Cl5_A1_n87 Cl1-    0.238700    0.237100    0.171678    2.000000 Uiso  1.0000
 Cl6_A1_n87 Cl1-    0.761300    0.762900    0.171678    2.000000 Uiso  1.0000
 Li3_A1_n87 Li+    0.500000    0.500000    0.172000    2.000000 Uiso  0.2700
 Sc1_A1_n88 Sc3+    0.000000    0.000000    0.174000    2.000000 Uiso  1.0000
 Cl1_A1_n88 Cl1-    0.242100    0.768700    0.174000    2.000000 Uiso  1.0000
 Cl2_A1_n88 Cl1-    0.757900    0.231300    0.174000    2.000000 Uiso  1.0000
 Cl3_A1_n88 Cl1-    0.238700    0.237100    0.174322    2.000000 Uiso  1.0000
 Cl4_A1_n88 Cl1-    0.761300    0.762900    0.174322    2.000000 Uiso  1.0000
 Cl5_A1_n88 Cl1-    0.238700    0.237100    0.173678    2.000000 Uiso  1.0000
 Cl6_A1_n88 Cl1-    0.761300    0.762900    0.173678    2.000000 Uiso  1.0000
 Li3_A1_n88 Li+    0.500000    0.500000    0.174000    2.000000 Uiso  0.2700
 Sc1_A1_n89 Sc3+    0.000000    0.000000    0.176000    2.000000 Uiso  1.0000
 Cl1_A1_n89 Cl1-    0.242100    0.768700    0.176000    2.000000 Uiso  1.0000
 Cl2_A1_n89 Cl1-    0.757900    0.231300    0.176000    2.000000 Uiso  1.0000
 Cl3_A1_n89 Cl1-    0.238700    0.237100    0.176322    2.000000 Uiso  1.0000
 Cl4_A1_n89 Cl1-    0.761300    0.762900    0.176322    2.000000 Uiso  1.0000
 Cl5_A1_n89 Cl1-    0.238700    0.237100    0.175678    2.000000 Uiso  1.0000
 Cl6_A1_n89 Cl1-    0.761300    0.762900    0.175678    2.000000 Uiso  1.0000
 Li3_A1_n89 Li+    0.500000    0.500000    0.176000    2.000000 Uiso  0.2700
 Sc1_A1_n90 Sc3+    0.000000    0.000000    0.178000    2.000000 Uiso  1.0000
 Cl1_A1_n90 Cl1-    0.242100    0.768700    0.178000    2.000000 Uiso  1.0000
 Cl2_A1_n90 Cl1-    0.757900    0.231300    0.178000    2.000000 Uiso  1.0000
 Cl3_A1_n90 Cl1-    0.238700    0.237100    0.178322    2.000000 Uiso  1.0000
 Cl4_A1_n90 Cl1-    0.761300    0.762900    0.178322    2.000000 Uiso  1.0000
 Cl5_A1_n90 Cl1-    0.238700    0.237100    0.177678    2.000000 Uiso  1.0000
 Cl6_A1_n90 Cl1-    0.761300    0.762900    0.177678    2.000000 Uiso  1.0000
 Li3_A1_n90 Li+    0.500000    0.500000    0.178000    2.000000 Uiso  0.2700
 Sc1_A1_n91 Sc3+    0.000000    0.000000    0.180000    2.000000 Uiso  1.0000
 Cl1_A1_n91 Cl1-    0.242100    0.768700    0.180000    2.000000 Uiso  1.0000
 Cl2_A1_n91 Cl1-    0.757900    0.231300    0.180000    2.000000 Uiso  1.0000
 Cl3_A1_n91 Cl1-    0.238700    0.237100    0.180322    2.000000 Uiso  1.0000
 Cl4_A1_n91 Cl1-    0.761300    0.762900    0.180322    2.000000 Uiso  1.0000
 Cl5_A1_n91 Cl1-    0.238700    0.237100    0.179678    2.000000 Uiso  1.0000
 Cl6_A1_n91 Cl1-    0.761300    0.762900    0.179678    2.000000 Uiso  1.0000
 Li3_A1_n91 Li+    0.500000    0.500000    0.180000    2.000000 Uiso  0.2700
 Sc1_A1_n92 Sc3+    0.000000    0.000000    0.182000    2.000000 Uiso  1.0000
 Cl1_A1_n92 Cl1-    0.242100    0.768700    0.182000    2.000000 Uiso  1.0000
 Cl2_A1_n92 Cl1-    0.757900    0.231300    0.182000    2.000000 Uiso  1.0000
 Cl3_A1_n92 Cl1-    0.238700    0.237100    0.182322    2.000000 Uiso  1.0000
 Cl4_A1_n92 Cl1-    0.761300    0.762900    0.182322    2.000000 Uiso  1.0000
 Cl5_A1_n92 Cl1-    0.238700    0.237100    0.181678    2.000000 Uiso  1.0000
 Cl6_A1_n92 Cl1-    0.761300    0.762900    0.181678    2.000000 Uiso  1.0000
 Li3_A1_n92 Li+    0.500000    0.500000    0.182000    2.000000 Uiso  0.2700
 Sc1_A1_n93 Sc3+    0.000000    0.000000    0.184000    2.000000 Uiso  1.0000
 Cl1_A1_n93 Cl1-    0.242100    0.768700    0.184000    2.000000 Uiso  1.0000
 Cl2_A1_n93 Cl1-    0.757900    0.231300    0.184000    2.000000 Uiso  1.0000
 Cl3_A1_n93 Cl1-    0.238700    0.237100    0.184322    2.000000 Uiso  1.0000
 Cl4_A1_n93 Cl1-    0.761300    0.762900    0.184322    2.000000 Uiso  1.0000
 Cl5_A1_n93 Cl1-    0.238700    0.237100    0.183678    2.000000 Uiso  1.0000
 Cl6_A1_n93 Cl1-    0.761300    0.762900    0.183678    2.000000 Uiso  1.0000
 Li3_A1_n93 Li+    0.500000    0.500000    0.184000    2.000000 Uiso  0.2700
 Sc1_A1_n94 Sc3+    0.000000    0.000000    0.186000    2.000000 Uiso  1.0000
 Cl1_A1_n94 Cl1-    0.242100    0.768700    0.186000    2.000000 Uiso  1.0000
 Cl2_A1_n94 Cl1-    0.757900    0.231300    0.186000    2.000000 Uiso  1.0000
 Cl3_A1_n94 Cl1-    0.238700    0.237100    0.186322    2.000000 Uiso  1.0000
 Cl4_A1_n94 Cl1-    0.761300    0.762900    0.186322    2.000000 Uiso  1.0000
 Cl5_A1_n94 Cl1-    0.238700    0.237100    0.185678    2.000000 Uiso  1.0000
 Cl6_A1_n94 Cl1-    0.761300    0.762900    0.185678    2.000000 Uiso  1.0000
 Li3_A1_n94 Li+    0.500000    0.500000    0.186000    2.000000 Uiso  0.2700
 Sc1_A1_n95 Sc3+    0.000000    0.000000    0.188000    2.000000 Uiso  1.0000
 Cl1_A1_n95 Cl1-    0.242100    0.768700    0.188000    2.000000 Uiso  1.0000
 Cl2_A1_n95 Cl1-    0.757900    0.231300    0.188000    2.000000 Uiso  1.0000
 Cl3_A1_n95 Cl1-    0.238700    0.237100    0.188322    2.000000 Uiso  1.0000
 Cl4_A1_n95 Cl1-    0.761300    0.762900    0.188322    2.000000 Uiso  1.0000
 Cl5_A1_n95 Cl1-    0.238700    0.237100    0.187678    2.000000 Uiso  1.0000
 Cl6_A1_n95 Cl1-    0.761300    0.762900    0.187678    2.000000 Uiso  1.0000
 Li3_A1_n95 Li+    0.500000    0.500000    0.188000    2.000000 Uiso  0.2700
 Sc1_A1_n96 Sc3+    0.000000    0.000000    0.190000    2.000000 Uiso  1.0000
 Cl1_A1_n96 Cl1-    0.242100    0.768700    0.190000    2.000000 Uiso  1.0000
 Cl2_A1_n96 Cl1-    0.757900    0.231300    0.190000    2.000000 Uiso  1.0000
 Cl3_A1_n96 Cl1-    0.238700    0.237100    0.190322    2.000000 Uiso  1.0000
 Cl4_A1_n96 Cl1-    0.761300    0.762900    0.190322    2.000000 Uiso  1.0000
 Cl5_A1_n96 Cl1-    0.238700    0.237100    0.189678    2.000000 Uiso  1.0000
 Cl6_A1_n96 Cl1-    0.761300    0.762900    0.189678    2.000000 Uiso  1.0000
 Li3_A1_n96 Li+    0.500000    0.500000    0.190000    2.000000 Uiso  0.2700
 Sc1_A1_n97 Sc3+    0.000000    0.000000    0.192000    2.000000 Uiso  1.0000
 Cl1_A1_n97 Cl1-    0.242100    0.768700    0.192000    2.000000 Uiso  1.0000
 Cl2_A1_n97 Cl1-    0.757900    0.231300    0.192000    2.000000 Uiso  1.0000
 Cl3_A1_n97 Cl1-    0.238700    0.237100    0.192322    2.000000 Uiso  1.0000
 Cl4_A1_n97 Cl1-    0.761300    0.762900    0.192322    2.000000 Uiso  1.0000
 Cl5_A1_n97 Cl1-    0.238700    0.237100    0.191678    2.000000 Uiso  1.0000
 Cl6_A1_n97 Cl1-    0.761300    0.762900    0.191678    2.000000 Uiso  1.0000
 Li3_A1_n97 Li+    0.500000    0.500000    0.192000    2.000000 Uiso  0.2700
 Sc1_A1_n98 Sc3+    0.000000    0.000000    0.194000    2.000000 Uiso  1.0000
 Cl1_A1_n98 Cl1-    0.242100    0.768700    0.194000    2.000000 Uiso  1.0000
 Cl2_A1_n98 Cl1-    0.757900    0.231300    0.194000    2.000000 Uiso  1.0000
 Cl3_A1_n98 Cl1-    0.238700    0.237100    0.194322    2.000000 Uiso  1.0000
 Cl4_A1_n98 Cl1-    0.761300    0.762900    0.194322    2.000000 Uiso  1.0000
 Cl5_A1_n98 Cl1-    0.238700    0.237100    0.193678    2.000000 Uiso  1.0000
 Cl6_A1_n98 Cl1-    0.761300    0.762900    0.193678    2.000000 Uiso  1.0000
 Li3_A1_n98 Li+    0.500000    0.500000    0.194000    2.000000 Uiso  0.2700
 Sc1_A1_n99 Sc3+    0.000000    0.000000    0.196000    2.000000 Uiso  1.0000
 Cl1_A1_n99 Cl1-    0.242100    0.768700    0.196000    2.000000 Uiso  1.0000
 Cl2_A1_n99 Cl1-    0.757900    0.231300    0.196000    2.000000 Uiso  1.0000
 Cl3_A1_n99 Cl1-    0.238700    0.237100    0.196322    2.000000 Uiso  1.0000
 Cl4_A1_n99 Cl1-    0.761300    0.762900    0.196322    2.000000 Uiso  1.0000
 Cl5_A1_n99 Cl1-    0.238700    0.237100    0.195678    2.000000 Uiso  1.0000
 Cl6_A1_n99 Cl1-    0.761300    0.762900    0.195678    2.000000 Uiso  1.0000
 Li3_A1_n99 Li+    0.500000    0.500000    0.196000    2.000000 Uiso  0.2700
 Sc1_A1_n100 Sc3+    0.000000    0.000000    0.198000    2.000000 Uiso  1.0000
 Cl1_A1_n100 Cl1-    0.242100    0.768700    0.198000    2.000000 Uiso  1.0000
 Cl2_A1_n100 Cl1-    0.757900    0.231300    0.198000    2.000000 Uiso  1.0000
 Cl3_A1_n100 Cl1-    0.238700    0.237100    0.198322    2.000000 Uiso  1.0000
 Cl4_A1_n100 Cl1-    0.761300    0.762900    0.198322    2.000000 Uiso  1.0000
 Cl5_A1_n100 Cl1-    0.238700    0.237100    0.197678    2.000000 Uiso  1.0000
 Cl6_A1_n100 Cl1-    0.761300    0.762900    0.197678    2.000000 Uiso  1.0000
 Li3_A1_n100 Li+    0.500000    0.500000    0.198000    2.000000 Uiso  0.2700
 Sc1_A1_n101 Sc3+    0.000000    0.000000    0.200000    2.000000 Uiso  1.0000
 Cl1_A1_n101 Cl1-    0.242100    0.768700    0.200000    2.000000 Uiso  1.0000
 Cl2_A1_n101 Cl1-    0.757900    0.231300    0.200000    2.000000 Uiso  1.0000
 Cl3_A1_n101 Cl1-    0.238700    0.237100    0.200322    2.000000 Uiso  1.0000
 Cl4_A1_n101 Cl1-    0.761300    0.762900    0.200322    2.000000 Uiso  1.0000
 Cl5_A1_n101 Cl1-    0.238700    0.237100    0.199678    2.000000 Uiso  1.0000
 Cl6_A1_n101 Cl1-    0.761300    0.762900    0.199678    2.000000 Uiso  1.0000
 Li3_A1_n101 Li+    0.500000    0.500000    0.200000    2.000000 Uiso  0.2700
 Sc1_A1_n102 Sc3+    0.000000    0.000000    0.202000    2.000000 Uiso  1.0000
 Cl1_A1_n102 Cl1-    0.242100    0.768700    0.202000    2.000000 Uiso  1.0000
 Cl2_A1_n102 Cl1-    0.757900    0.231300    0.202000    2.000000 Uiso  1.0000
 Cl3_A1_n102 Cl1-    0.238700    0.237100    0.202322    2.000000 Uiso  1.0000
 Cl4_A1_n102 Cl1-    0.761300    0.762900    0.202322    2.000000 Uiso  1.0000
 Cl5_A1_n102 Cl1-    0.238700    0.237100    0.201678    2.000000 Uiso  1.0000
 Cl6_A1_n102 Cl1-    0.761300    0.762900    0.201678    2.000000 Uiso  1.0000
 Li3_A1_n102 Li+    0.500000    0.500000    0.202000    2.000000 Uiso  0.2700
 Sc1_A1_n103 Sc3+    0.000000    0.000000    0.204000    2.000000 Uiso  1.0000
 Cl1_A1_n103 Cl1-    0.242100    0.768700    0.204000    2.000000 Uiso  1.0000
 Cl2_A1_n103 Cl1-    0.757900    0.231300    0.204000    2.000000 Uiso  1.0000
 Cl3_A1_n103 Cl1-    0.238700    0.237100    0.204322    2.000000 Uiso  1.0000
 Cl4_A1_n103 Cl1-    0.761300    0.762900    0.204322    2.000000 Uiso  1.0000
 Cl5_A1_n103 Cl1-    0.238700    0.237100    0.203678    2.000000 Uiso  1.0000
 Cl6_A1_n103 Cl1-    0.761300    0.762900    0.203678    2.000000 Uiso  1.0000
 Li3_A1_n103 Li+    0.500000    0.500000    0.204000    2.000000 Uiso  0.2700
 Sc1_A1_n104 Sc3+    0.000000    0.000000    0.206000    2.000000 Uiso  1.0000
 Cl1_A1_n104 Cl1-    0.242100    0.768700    0.206000    2.000000 Uiso  1.0000
 Cl2_A1_n104 Cl1-    0.757900    0.231300    0.206000    2.000000 Uiso  1.0000
 Cl3_A1_n104 Cl1-    0.238700    0.237100    0.206322    2.000000 Uiso  1.0000
 Cl4_A1_n104 Cl1-    0.761300    0.762900    0.206322    2.000000 Uiso  1.0000
 Cl5_A1_n104 Cl1-    0.238700    0.237100    0.205678    2.000000 Uiso  1.0000
 Cl6_A1_n104 Cl1-    0.761300    0.762900    0.205678    2.000000 Uiso  1.0000
 Li3_A1_n104 Li+    0.500000    0.500000    0.206000    2.000000 Uiso  0.2700
 Sc1_A1_n105 Sc3+    0.000000    0.000000    0.208000    2.000000 Uiso  1.0000
 Cl1_A1_n105 Cl1-    0.242100    0.768700    0.208000    2.000000 Uiso  1.0000
 Cl2_A1_n105 Cl1-    0.757900    0.231300    0.208000    2.000000 Uiso  1.0000
 Cl3_A1_n105 Cl1-    0.238700    0.237100    0.208322    2.000000 Uiso  1.0000
 Cl4_A1_n105 Cl1-    0.761300    0.762900    0.208322    2.000000 Uiso  1.0000
 Cl5_A1_n105 Cl1-    0.238700    0.237100    0.207678    2.000000 Uiso  1.0000
 Cl6_A1_n105 Cl1-    0.761300    0.762900    0.207678    2.000000 Uiso  1.0000
 Li3_A1_n105 Li+    0.500000    0.500000    0.208000    2.000000 Uiso  0.2700
 Sc1_A1_n106 Sc3+    0.000000    0.000000    0.210000    2.000000 Uiso  1.0000
 Cl1_A1_n106 Cl1-    0.242100    0.768700    0.210000    2.000000 Uiso  1.0000
 Cl2_A1_n106 Cl1-    0.757900    0.231300    0.210000    2.000000 Uiso  1.0000
 Cl3_A1_n106 Cl1-    0.238700    0.237100    0.210322    2.000000 Uiso  1.0000
 Cl4_A1_n106 Cl1-    0.761300    0.762900    0.210322    2.000000 Uiso  1.0000
 Cl5_A1_n106 Cl1-    0.238700    0.237100    0.209678    2.000000 Uiso  1.0000
 Cl6_A1_n106 Cl1-    0.761300    0.762900    0.209678    2.000000 Uiso  1.0000
 Li3_A1_n106 Li+    0.500000    0.500000    0.210000    2.000000 Uiso  0.2700
 Sc1_A1_n107 Sc3+    0.000000    0.000000    0.212000    2.000000 Uiso  1.0000
 Cl1_A1_n107 Cl1-    0.242100    0.768700    0.212000    2.000000 Uiso  1.0000
 Cl2_A1_n107 Cl1-    0.757900    0.231300    0.212000    2.000000 Uiso  1.0000
 Cl3_A1_n107 Cl1-    0.238700    0.237100    0.212322    2.000000 Uiso  1.0000
 Cl4_A1_n107 Cl1-    0.761300    0.762900    0.212322    2.000000 Uiso  1.0000
 Cl5_A1_n107 Cl1-    0.238700    0.237100    0.211678    2.000000 Uiso  1.0000
 Cl6_A1_n107 Cl1-    0.761300    0.762900    0.211678    2.000000 Uiso  1.0000
 Li3_A1_n107 Li+    0.500000    0.500000    0.212000    2.000000 Uiso  0.2700
 Sc1_A1_n108 Sc3+    0.000000    0.000000    0.214000    2.000000 Uiso  1.0000
 Cl1_A1_n108 Cl1-    0.242100    0.768700    0.214000    2.000000 Uiso  1.0000
 Cl2_A1_n108 Cl1-    0.757900    0.231300    0.214000    2.000000 Uiso  1.0000
 Cl3_A1_n108 Cl1-    0.238700    0.237100    0.214322    2.000000 Uiso  1.0000
 Cl4_A1_n108 Cl1-    0.761300    0.762900    0.214322    2.000000 Uiso  1.0000
 Cl5_A1_n108 Cl1-    0.238700    0.237100    0.213678    2.000000 Uiso  1.0000
 Cl6_A1_n108 Cl1-    0.761300    0.762900    0.213678    2.000000 Uiso  1.0000
 Li3_A1_n108 Li+    0.500000    0.500000    0.214000    2.000000 Uiso  0.2700
 Sc1_A1_n109 Sc3+    0.000000    0.000000    0.216000    2.000000 Uiso  1.0000
 Cl1_A1_n109 Cl1-    0.242100    0.768700    0.216000    2.000000 Uiso  1.0000
 Cl2_A1_n109 Cl1-    0.757900    0.231300    0.216000    2.000000 Uiso  1.0000
 Cl3_A1_n109 Cl1-    0.238700    0.237100    0.216322    2.000000 Uiso  1.0000
 Cl4_A1_n109 Cl1-    0.761300    0.762900    0.216322    2.000000 Uiso  1.0000
 Cl5_A1_n109 Cl1-    0.238700    0.237100    0.215678    2.000000 Uiso  1.0000
 Cl6_A1_n109 Cl1-    0.761300    0.762900    0.215678    2.000000 Uiso  1.0000
 Li3_A1_n109 Li+    0.500000    0.500000    0.216000    2.000000 Uiso  0.2700
 Sc1_A1_n110 Sc3+    0.000000    0.000000    0.218000    2.000000 Uiso  1.0000
 Cl1_A1_n110 Cl1-    0.242100    0.768700    0.218000    2.000000 Uiso  1.0000
 Cl2_A1_n110 Cl1-    0.757900    0.231300    0.218000    2.000000 Uiso  1.0000
 Cl3_A1_n110 Cl1-    0.238700    0.237100    0.218322    2.000000 Uiso  1.0000
 Cl4_A1_n110 Cl1-    0.761300    0.762900    0.218322    2.000000 Uiso  1.0000
 Cl5_A1_n110 Cl1-    0.238700    0.237100    0.217678    2.000000 Uiso  1.0000
 Cl6_A1_n110 Cl1-    0.761300    0.762900    0.217678    2.000000 Uiso  1.0000
 Li3_A1_n110 Li+    0.500000    0.500000    0.218000    2.000000 Uiso  0.2700
 Sc1_A1_n111 Sc3+    0.000000    0.000000    0.220000    2.000000 Uiso  1.0000
 Cl1_A1_n111 Cl1-    0.242100    0.768700    0.220000    2.000000 Uiso  1.0000
 Cl2_A1_n111 Cl1-    0.757900    0.231300    0.220000    2.000000 Uiso  1.0000
 Cl3_A1_n111 Cl1-    0.238700    0.237100    0.220322    2.000000 Uiso  1.0000
 Cl4_A1_n111 Cl1-    0.761300    0.762900    0.220322    2.000000 Uiso  1.0000
 Cl5_A1_n111 Cl1-    0.238700    0.237100    0.219678    2.000000 Uiso  1.0000
 Cl6_A1_n111 Cl1-    0.761300    0.762900    0.219678    2.000000 Uiso  1.0000
 Li3_A1_n111 Li+    0.500000    0.500000    0.220000    2.000000 Uiso  0.2700
 Sc1_A1_n112 Sc3+    0.000000    0.000000    0.222000    2.000000 Uiso  1.0000
 Cl1_A1_n112 Cl1-    0.242100    0.768700    0.222000    2.000000 Uiso  1.0000
 Cl2_A1_n112 Cl1-    0.757900    0.231300    0.222000    2.000000 Uiso  1.0000
 Cl3_A1_n112 Cl1-    0.238700    0.237100    0.222322    2.000000 Uiso  1.0000
 Cl4_A1_n112 Cl1-    0.761300    0.762900    0.222322    2.000000 Uiso  1.0000
 Cl5_A1_n112 Cl1-    0.238700    0.237100    0.221678    2.000000 Uiso  1.0000
 Cl6_A1_n112 Cl1-    0.761300    0.762900    0.221678    2.000000 Uiso  1.0000
 Li3_A1_n112 Li+    0.500000    0.500000    0.222000    2.000000 Uiso  0.2700
 Sc1_A1_n113 Sc3+    0.000000    0.000000    0.224000    2.000000 Uiso  1.0000
 Cl1_A1_n113 Cl1-    0.242100    0.768700    0.224000    2.000000 Uiso  1.0000
 Cl2_A1_n113 Cl1-    0.757900    0.231300    0.224000    2.000000 Uiso  1.0000
 Cl3_A1_n113 Cl1-    0.238700    0.237100    0.224322    2.000000 Uiso  1.0000
 Cl4_A1_n113 Cl1-    0.761300    0.762900    0.224322    2.000000 Uiso  1.0000
 Cl5_A1_n113 Cl1-    0.238700    0.237100    0.223678    2.000000 Uiso  1.0000
 Cl6_A1_n113 Cl1-    0.761300    0.762900    0.223678    2.000000 Uiso  1.0000
 Li3_A1_n113 Li+    0.500000    0.500000    0.224000    2.000000 Uiso  0.2700
 Sc1_A1_n114 Sc3+    0.000000    0.000000    0.226000    2.000000 Uiso  1.0000
 Cl1_A1_n114 Cl1-    0.242100    0.768700    0.226000    2.000000 Uiso  1.0000
 Cl2_A1_n114 Cl1-    0.757900    0.231300    0.226000    2.000000 Uiso  1.0000
 Cl3_A1_n114 Cl1-    0.238700    0.237100    0.226322    2.000000 Uiso  1.0000
 Cl4_A1_n114 Cl1-    0.761300    0.762900    0.226322    2.000000 Uiso  1.0000
 Cl5_A1_n114 Cl1-    0.238700    0.237100    0.225678    2.000000 Uiso  1.0000
 Cl6_A1_n114 Cl1-    0.761300    0.762900    0.225678    2.000000 Uiso  1.0000
 Li3_A1_n114 Li+    0.500000    0.500000    0.226000    2.000000 Uiso  0.2700
 Sc1_A1_n115 Sc3+    0.000000    0.000000    0.228000    2.000000 Uiso  1.0000
 Cl1_A1_n115 Cl1-    0.242100    0.768700    0.228000    2.000000 Uiso  1.0000
 Cl2_A1_n115 Cl1-    0.757900    0.231300    0.228000    2.000000 Uiso  1.0000
 Cl3_A1_n115 Cl1-    0.238700    0.237100    0.228322    2.000000 Uiso  1.0000
 Cl4_A1_n115 Cl1-    0.761300    0.762900    0.228322    2.000000 Uiso  1.0000
 Cl5_A1_n115 Cl1-    0.238700    0.237100    0.227678    2.000000 Uiso  1.0000
 Cl6_A1_n115 Cl1-    0.761300    0.762900    0.227678    2.000000 Uiso  1.0000
 Li3_A1_n115 Li+    0.500000    0.500000    0.228000    2.000000 Uiso  0.2700
 Sc1_A1_n116 Sc3+    0.000000    0.000000    0.230000    2.000000 Uiso  1.0000
 Cl1_A1_n116 Cl1-    0.242100    0.768700    0.230000    2.000000 Uiso  1.0000
 Cl2_A1_n116 Cl1-    0.757900    0.231300    0.230000    2.000000 Uiso  1.0000
 Cl3_A1_n116 Cl1-    0.238700    0.237100    0.230322    2.000000 Uiso  1.0000
 Cl4_A1_n116 Cl1-    0.761300    0.762900    0.230322    2.000000 Uiso  1.0000
 Cl5_A1_n116 Cl1-    0.238700    0.237100    0.229678    2.000000 Uiso  1.0000
 Cl6_A1_n116 Cl1-    0.761300    0.762900    0.229678    2.000000 Uiso  1.0000
 Li3_A1_n116 Li+    0.500000    0.500000    0.230000    2.000000 Uiso  0.2700
 Sc1_A1_n117 Sc3+    0.000000    0.000000    0.232000    2.000000 Uiso  1.0000
 Cl1_A1_n117 Cl1-    0.242100    0.768700    0.232000    2.000000 Uiso  1.0000
 Cl2_A1_n117 Cl1-    0.757900    0.231300    0.232000    2.000000 Uiso  1.0000
 Cl3_A1_n117 Cl1-    0.238700    0.237100    0.232322    2.000000 Uiso  1.0000
 Cl4_A1_n117 Cl1-    0.761300    0.762900    0.232322    2.000000 Uiso  1.0000
 Cl5_A1_n117 Cl1-    0.238700    0.237100    0.231678    2.000000 Uiso  1.0000
 Cl6_A1_n117 Cl1-    0.761300    0.762900    0.231678    2.000000 Uiso  1.0000
 Li3_A1_n117 Li+    0.500000    0.500000    0.232000    2.000000 Uiso  0.2700
 Sc1_A1_n118 Sc3+    0.000000    0.000000    0.234000    2.000000 Uiso  1.0000
 Cl1_A1_n118 Cl1-    0.242100    0.768700    0.234000    2.000000 Uiso  1.0000
 Cl2_A1_n118 Cl1-    0.757900    0.231300    0.234000    2.000000 Uiso  1.0000
 Cl3_A1_n118 Cl1-    0.238700    0.237100    0.234322    2.000000 Uiso  1.0000
 Cl4_A1_n118 Cl1-    0.761300    0.762900    0.234322    2.000000 Uiso  1.0000
 Cl5_A1_n118 Cl1-    0.238700    0.237100    0.233678    2.000000 Uiso  1.0000
 Cl6_A1_n118 Cl1-    0.761300    0.762900    0.233678    2.000000 Uiso  1.0000
 Li3_A1_n118 Li+    0.500000    0.500000    0.234000    2.000000 Uiso  0.2700
 Sc1_A1_n119 Sc3+    0.000000    0.000000    0.236000    2.000000 Uiso  1.0000
 Cl1_A1_n119 Cl1-    0.242100    0.768700    0.236000    2.000000 Uiso  1.0000
 Cl2_A1_n119 Cl1-    0.757900    0.231300    0.236000    2.000000 Uiso  1.0000
 Cl3_A1_n119 Cl1-    0.238700    0.237100    0.236322    2.000000 Uiso  1.0000
 Cl4_A1_n119 Cl1-    0.761300    0.762900    0.236322    2.000000 Uiso  1.0000
 Cl5_A1_n119 Cl1-    0.238700    0.237100    0.235678    2.000000 Uiso  1.0000
 Cl6_A1_n119 Cl1-    0.761300    0.762900    0.235678    2.000000 Uiso  1.0000
 Li3_A1_n119 Li+    0.500000    0.500000    0.236000    2.000000 Uiso  0.2700
 Sc1_A1_n120 Sc3+    0.000000    0.000000    0.238000    2.000000 Uiso  1.0000
 Cl1_A1_n120 Cl1-    0.242100    0.768700    0.238000    2.000000 Uiso  1.0000
 Cl2_A1_n120 Cl1-    0.757900    0.231300    0.238000    2.000000 Uiso  1.0000
 Cl3_A1_n120 Cl1-    0.238700    0.237100    0.238322    2.000000 Uiso  1.0000
 Cl4_A1_n120 Cl1-    0.761300    0.762900    0.238322    2.000000 Uiso  1.0000
 Cl5_A1_n120 Cl1-    0.238700    0.237100    0.237678    2.000000 Uiso  1.0000
 Cl6_A1_n120 Cl1-    0.761300    0.762900    0.237678    2.000000 Uiso  1.0000
 Li3_A1_n120 Li+    0.500000    0.500000    0.238000    2.000000 Uiso  0.2700
 Sc1_A1_n121 Sc3+    0.000000    0.000000    0.240000    2.000000 Uiso  1.0000
 Cl1_A1_n121 Cl1-    0.242100    0.768700    0.240000    2.000000 Uiso  1.0000
 Cl2_A1_n121 Cl1-    0.757900    0.231300    0.240000    2.000000 Uiso  1.0000
 Cl3_A1_n121 Cl1-    0.238700    0.237100    0.240322    2.000000 Uiso  1.0000
 Cl4_A1_n121 Cl1-    0.761300    0.762900    0.240322    2.000000 Uiso  1.0000
 Cl5_A1_n121 Cl1-    0.238700    0.237100    0.239678    2.000000 Uiso  1.0000
 Cl6_A1_n121 Cl1-    0.761300    0.762900    0.239678    2.000000 Uiso  1.0000
 Li3_A1_n121 Li+    0.500000    0.500000    0.240000    2.000000 Uiso  0.2700
 Sc1_A1_n122 Sc3+    0.000000    0.000000    0.242000    2.000000 Uiso  1.0000
 Cl1_A1_n122 Cl1-    0.242100    0.768700    0.242000    2.000000 Uiso  1.0000
 Cl2_A1_n122 Cl1-    0.757900    0.231300    0.242000    2.000000 Uiso  1.0000
 Cl3_A1_n122 Cl1-    0.238700    0.237100    0.242322    2.000000 Uiso  1.0000
 Cl4_A1_n122 Cl1-    0.761300    0.762900    0.242322    2.000000 Uiso  1.0000
 Cl5_A1_n122 Cl1-    0.238700    0.237100    0.241678    2.000000 Uiso  1.0000
 Cl6_A1_n122 Cl1-    0.761300    0.762900    0.241678    2.000000 Uiso  1.0000
 Li3_A1_n122 Li+    0.500000    0.500000    0.242000    2.000000 Uiso  0.2700
 Sc1_A1_n123 Sc3+    0.000000    0.000000    0.244000    2.000000 Uiso  1.0000
 Cl1_A1_n123 Cl1-    0.242100    0.768700    0.244000    2.000000 Uiso  1.0000
 Cl2_A1_n123 Cl1-    0.757900    0.231300    0.244000    2.000000 Uiso  1.0000
 Cl3_A1_n123 Cl1-    0.238700    0.237100    0.244322    2.000000 Uiso  1.0000
 Cl4_A1_n123 Cl1-    0.761300    0.762900    0.244322    2.000000 Uiso  1.0000
 Cl5_A1_n123 Cl1-    0.238700    0.237100    0.243678    2.000000 Uiso  1.0000
 Cl6_A1_n123 Cl1-    0.761300    0.762900    0.243678    2.000000 Uiso  1.0000
 Li3_A1_n123 Li+    0.500000    0.500000    0.244000    2.000000 Uiso  0.2700
 Sc1_A1_n124 Sc3+    0.000000    0.000000    0.246000    2.000000 Uiso  1.0000
 Cl1_A1_n124 Cl1-    0.242100    0.768700    0.246000    2.000000 Uiso  1.0000
 Cl2_A1_n124 Cl1-    0.757900    0.231300    0.246000    2.000000 Uiso  1.0000
 Cl3_A1_n124 Cl1-    0.238700    0.237100    0.246322    2.000000 Uiso  1.0000
 Cl4_A1_n124 Cl1-    0.761300    0.762900    0.246322    2.000000 Uiso  1.0000
 Cl5_A1_n124 Cl1-    0.238700    0.237100    0.245678    2.000000 Uiso  1.0000
 Cl6_A1_n124 Cl1-    0.761300    0.762900    0.245678    2.000000 Uiso  1.0000
 Li3_A1_n124 Li+    0.500000    0.500000    0.246000    2.000000 Uiso  0.2700
 Sc1_A1_n125 Sc3+    0.000000    0.000000    0.248000    2.000000 Uiso  1.0000
 Cl1_A1_n125 Cl1-    0.242100    0.768700    0.248000    2.000000 Uiso  1.0000
 Cl2_A1_n125 Cl1-    0.757900    0.231300    0.248000    2.000000 Uiso  1.0000
 Cl3_A1_n125 Cl1-    0.238700    0.237100    0.248322    2.000000 Uiso  1.0000
 Cl4_A1_n125 Cl1-    0.761300    0.762900    0.248322    2.000000 Uiso  1.0000
 Cl5_A1_n125 Cl1-    0.238700    0.237100    0.247678    2.000000 Uiso  1.0000
 Cl6_A1_n125 Cl1-    0.761300    0.762900    0.247678    2.000000 Uiso  1.0000
 Li3_A1_n125 Li+    0.500000    0.500000    0.248000    2.000000 Uiso  0.2700
 Sc1_A1_n126 Sc3+    0.000000    0.000000    0.250000    2.000000 Uiso  1.0000
 Cl1_A1_n126 Cl1-    0.242100    0.768700    0.250000    2.000000 Uiso  1.0000
 Cl2_A1_n126 Cl1-    0.757900    0.231300    0.250000    2.000000 Uiso  1.0000
 Cl3_A1_n126 Cl1-    0.238700    0.237100    0.250322    2.000000 Uiso  1.0000
 Cl4_A1_n126 Cl1-    0.761300    0.762900    0.250322    2.000000 Uiso  1.0000
 Cl5_A1_n126 Cl1-    0.238700    0.237100    0.249678    2.000000 Uiso  1.0000
 Cl6_A1_n126 Cl1-    0.761300    0.762900    0.249678    2.000000 Uiso  1.0000
 Li3_A1_n126 Li+    0.500000    0.500000    0.250000    2.000000 Uiso  0.2700
 Sc1_A1_n127 Sc3+    0.000000    0.000000    0.252000    2.000000 Uiso  1.0000
 Cl1_A1_n127 Cl1-    0.242100    0.768700    0.252000    2.000000 Uiso  1.0000
 Cl2_A1_n127 Cl1-    0.757900    0.231300    0.252000    2.000000 Uiso  1.0000
 Cl3_A1_n127 Cl1-    0.238700    0.237100    0.252322    2.000000 Uiso  1.0000
 Cl4_A1_n127 Cl1-    0.761300    0.762900    0.252322    2.000000 Uiso  1.0000
 Cl5_A1_n127 Cl1-    0.238700    0.237100    0.251678    2.000000 Uiso  1.0000
 Cl6_A1_n127 Cl1-    0.761300    0.762900    0.251678    2.000000 Uiso  1.0000
 Li3_A1_n127 Li+    0.500000    0.500000    0.252000    2.000000 Uiso  0.2700
 Sc1_A1_n128 Sc3+    0.000000    0.000000    0.254000    2.000000 Uiso  1.0000
 Cl1_A1_n128 Cl1-    0.242100    0.768700    0.254000    2.000000 Uiso  1.0000
 Cl2_A1_n128 Cl1-    0.757900    0.231300    0.254000    2.000000 Uiso  1.0000
 Cl3_A1_n128 Cl1-    0.238700    0.237100    0.254322    2.000000 Uiso  1.0000
 Cl4_A1_n128 Cl1-    0.761300    0.762900    0.254322    2.000000 Uiso  1.0000
 Cl5_A1_n128 Cl1-    0.238700    0.237100    0.253678    2.000000 Uiso  1.0000
 Cl6_A1_n128 Cl1-    0.761300    0.762900    0.253678    2.000000 Uiso  1.0000
 Li3_A1_n128 Li+    0.500000    0.500000    0.254000    2.000000 Uiso  0.2700
 Sc1_A1_n129 Sc3+    0.000000    0.000000    0.256000    2.000000 Uiso  1.0000
 Cl1_A1_n129 Cl1-    0.242100    0.768700    0.256000    2.000000 Uiso  1.0000
 Cl2_A1_n129 Cl1-    0.757900    0.231300    0.256000    2.000000 Uiso  1.0000
 Cl3_A1_n129 Cl1-    0.238700    0.237100    0.256322    2.000000 Uiso  1.0000
 Cl4_A1_n129 Cl1-    0.761300    0.762900    0.256322    2.000000 Uiso  1.0000
 Cl5_A1_n129 Cl1-    0.238700    0.237100    0.255678    2.000000 Uiso  1.0000
 Cl6_A1_n129 Cl1-    0.761300    0.762900    0.255678    2.000000 Uiso  1.0000
 Li3_A1_n129 Li+    0.500000    0.500000    0.256000    2.000000 Uiso  0.2700
 Sc1_A1_n130 Sc3+    0.000000    0.000000    0.258000    2.000000 Uiso  1.0000
 Cl1_A1_n130 Cl1-    0.242100    0.768700    0.258000    2.000000 Uiso  1.0000
 Cl2_A1_n130 Cl1-    0.757900    0.231300    0.258000    2.000000 Uiso  1.0000
 Cl3_A1_n130 Cl1-    0.238700    0.237100    0.258322    2.000000 Uiso  1.0000
 Cl4_A1_n130 Cl1-    0.761300    0.762900    0.258322    2.000000 Uiso  1.0000
 Cl5_A1_n130 Cl1-    0.238700    0.237100    0.257678    2.000000 Uiso  1.0000
 Cl6_A1_n130 Cl1-    0.761300    0.762900    0.257678    2.000000 Uiso  1.0000
 Li3_A1_n130 Li+    0.500000    0.500000    0.258000    2.000000 Uiso  0.2700
 Sc1_A1_n131 Sc3+    0.000000    0.000000    0.260000    2.000000 Uiso  1.0000
 Cl1_A1_n131 Cl1-    0.242100    0.768700    0.260000    2.000000 Uiso  1.0000
 Cl2_A1_n131 Cl1-    0.757900    0.231300    0.260000    2.000000 Uiso  1.0000
 Cl3_A1_n131 Cl1-    0.238700    0.237100    0.260322    2.000000 Uiso  1.0000
 Cl4_A1_n131 Cl1-    0.761300    0.762900    0.260322    2.000000 Uiso  1.0000
 Cl5_A1_n131 Cl1-    0.238700    0.237100    0.259678    2.000000 Uiso  1.0000
 Cl6_A1_n131 Cl1-    0.761300    0.762900    0.259678    2.000000 Uiso  1.0000
 Li3_A1_n131 Li+    0.500000    0.500000    0.260000    2.000000 Uiso  0.2700
 Sc1_A1_n132 Sc3+    0.000000    0.000000    0.262000    2.000000 Uiso  1.0000
 Cl1_A1_n132 Cl1-    0.242100    0.768700    0.262000    2.000000 Uiso  1.0000
 Cl2_A1_n132 Cl1-    0.757900    0.231300    0.262000    2.000000 Uiso  1.0000
 Cl3_A1_n132 Cl1-    0.238700    0.237100    0.262322    2.000000 Uiso  1.0000
 Cl4_A1_n132 Cl1-    0.761300    0.762900    0.262322    2.000000 Uiso  1.0000
 Cl5_A1_n132 Cl1-    0.238700    0.237100    0.261678    2.000000 Uiso  1.0000
 Cl6_A1_n132 Cl1-    0.761300    0.762900    0.261678    2.000000 Uiso  1.0000
 Li3_A1_n132 Li+    0.500000    0.500000    0.262000    2.000000 Uiso  0.2700
 Sc1_A1_n133 Sc3+    0.000000    0.000000    0.264000    2.000000 Uiso  1.0000
 Cl1_A1_n133 Cl1-    0.242100    0.768700    0.264000    2.000000 Uiso  1.0000
 Cl2_A1_n133 Cl1-    0.757900    0.231300    0.264000    2.000000 Uiso  1.0000
 Cl3_A1_n133 Cl1-    0.238700    0.237100    0.264322    2.000000 Uiso  1.0000
 Cl4_A1_n133 Cl1-    0.761300    0.762900    0.264322    2.000000 Uiso  1.0000
 Cl5_A1_n133 Cl1-    0.238700    0.237100    0.263678    2.000000 Uiso  1.0000
 Cl6_A1_n133 Cl1-    0.761300    0.762900    0.263678    2.000000 Uiso  1.0000
 Li3_A1_n133 Li+    0.500000    0.500000    0.264000    2.000000 Uiso  0.2700
 Sc1_A1_n134 Sc3+    0.000000    0.000000    0.266000    2.000000 Uiso  1.0000
 Cl1_A1_n134 Cl1-    0.242100    0.768700    0.266000    2.000000 Uiso  1.0000
 Cl2_A1_n134 Cl1-    0.757900    0.231300    0.266000    2.000000 Uiso  1.0000
 Cl3_A1_n134 Cl1-    0.238700    0.237100    0.266322    2.000000 Uiso  1.0000
 Cl4_A1_n134 Cl1-    0.761300    0.762900    0.266322    2.000000 Uiso  1.0000
 Cl5_A1_n134 Cl1-    0.238700    0.237100    0.265678    2.000000 Uiso  1.0000
 Cl6_A1_n134 Cl1-    0.761300    0.762900    0.265678    2.000000 Uiso  1.0000
 Li3_A1_n134 Li+    0.500000    0.500000    0.266000    2.000000 Uiso  0.2700
 Sc1_A1_n135 Sc3+    0.000000    0.000000    0.268000    2.000000 Uiso  1.0000
 Cl1_A1_n135 Cl1-    0.242100    0.768700    0.268000    2.000000 Uiso  1.0000
 Cl2_A1_n135 Cl1-    0.757900    0.231300    0.268000    2.000000 Uiso  1.0000
 Cl3_A1_n135 Cl1-    0.238700    0.237100    0.268322    2.000000 Uiso  1.0000
 Cl4_A1_n135 Cl1-    0.761300    0.762900    0.268322    2.000000 Uiso  1.0000
 Cl5_A1_n135 Cl1-    0.238700    0.237100    0.267678    2.000000 Uiso  1.0000
 Cl6_A1_n135 Cl1-    0.761300    0.762900    0.267678    2.000000 Uiso  1.0000
 Li3_A1_n135 Li+    0.500000    0.500000    0.268000    2.000000 Uiso  0.2700
 Sc1_A1_n136 Sc3+    0.000000    0.000000    0.270000    2.000000 Uiso  1.0000
 Cl1_A1_n136 Cl1-    0.242100    0.768700    0.270000    2.000000 Uiso  1.0000
 Cl2_A1_n136 Cl1-    0.757900    0.231300    0.270000    2.000000 Uiso  1.0000
 Cl3_A1_n136 Cl1-    0.238700    0.237100    0.270322    2.000000 Uiso  1.0000
 Cl4_A1_n136 Cl1-    0.761300    0.762900    0.270322    2.000000 Uiso  1.0000
 Cl5_A1_n136 Cl1-    0.238700    0.237100    0.269678    2.000000 Uiso  1.0000
 Cl6_A1_n136 Cl1-    0.761300    0.762900    0.269678    2.000000 Uiso  1.0000
 Li3_A1_n136 Li+    0.500000    0.500000    0.270000    2.000000 Uiso  0.2700
 Sc1_A1_n137 Sc3+    0.000000    0.000000    0.272000    2.000000 Uiso  1.0000
 Cl1_A1_n137 Cl1-    0.242100    0.768700    0.272000    2.000000 Uiso  1.0000
 Cl2_A1_n137 Cl1-    0.757900    0.231300    0.272000    2.000000 Uiso  1.0000
 Cl3_A1_n137 Cl1-    0.238700    0.237100    0.272322    2.000000 Uiso  1.0000
 Cl4_A1_n137 Cl1-    0.761300    0.762900    0.272322    2.000000 Uiso  1.0000
 Cl5_A1_n137 Cl1-    0.238700    0.237100    0.271678    2.000000 Uiso  1.0000
 Cl6_A1_n137 Cl1-    0.761300    0.762900    0.271678    2.000000 Uiso  1.0000
 Li3_A1_n137 Li+    0.500000    0.500000    0.272000    2.000000 Uiso  0.2700
 Sc1_A1_n138 Sc3+    0.000000    0.000000    0.274000    2.000000 Uiso  1.0000
 Cl1_A1_n138 Cl1-    0.242100    0.768700    0.274000    2.000000 Uiso  1.0000
 Cl2_A1_n138 Cl1-    0.757900    0.231300    0.274000    2.000000 Uiso  1.0000
 Cl3_A1_n138 Cl1-    0.238700    0.237100    0.274322    2.000000 Uiso  1.0000
 Cl4_A1_n138 Cl1-    0.761300    0.762900    0.274322    2.000000 Uiso  1.0000
 Cl5_A1_n138 Cl1-    0.238700    0.237100    0.273678    2.000000 Uiso  1.0000
 Cl6_A1_n138 Cl1-    0.761300    0.762900    0.273678    2.000000 Uiso  1.0000
 Li3_A1_n138 Li+    0.500000    0.500000    0.274000    2.000000 Uiso  0.2700
 Sc1_A1_n139 Sc3+    0.000000    0.000000    0.276000    2.000000 Uiso  1.0000
 Cl1_A1_n139 Cl1-    0.242100    0.768700    0.276000    2.000000 Uiso  1.0000
 Cl2_A1_n139 Cl1-    0.757900    0.231300    0.276000    2.000000 Uiso  1.0000
 Cl3_A1_n139 Cl1-    0.238700    0.237100    0.276322    2.000000 Uiso  1.0000
 Cl4_A1_n139 Cl1-    0.761300    0.762900    0.276322    2.000000 Uiso  1.0000
 Cl5_A1_n139 Cl1-    0.238700    0.237100    0.275678    2.000000 Uiso  1.0000
 Cl6_A1_n139 Cl1-    0.761300    0.762900    0.275678    2.000000 Uiso  1.0000
 Li3_A1_n139 Li+    0.500000    0.500000    0.276000    2.000000 Uiso  0.2700
 Sc1_A1_n140 Sc3+    0.000000    0.000000    0.278000    2.000000 Uiso  1.0000
 Cl1_A1_n140 Cl1-    0.242100    0.768700    0.278000    2.000000 Uiso  1.0000
 Cl2_A1_n140 Cl1-    0.757900    0.231300    0.278000    2.000000 Uiso  1.0000
 Cl3_A1_n140 Cl1-    0.238700    0.237100    0.278322    2.000000 Uiso  1.0000
 Cl4_A1_n140 Cl1-    0.761300    0.762900    0.278322    2.000000 Uiso  1.0000
 Cl5_A1_n140 Cl1-    0.238700    0.237100    0.277678    2.000000 Uiso  1.0000
 Cl6_A1_n140 Cl1-    0.761300    0.762900    0.277678    2.000000 Uiso  1.0000
 Li3_A1_n140 Li+    0.500000    0.500000    0.278000    2.000000 Uiso  0.2700
 Sc1_A1_n141 Sc3+    0.000000    0.000000    0.280000    2.000000 Uiso  1.0000
 Cl1_A1_n141 Cl1-    0.242100    0.768700    0.280000    2.000000 Uiso  1.0000
 Cl2_A1_n141 Cl1-    0.757900    0.231300    0.280000    2.000000 Uiso  1.0000
 Cl3_A1_n141 Cl1-    0.238700    0.237100    0.280322    2.000000 Uiso  1.0000
 Cl4_A1_n141 Cl1-    0.761300    0.762900    0.280322    2.000000 Uiso  1.0000
 Cl5_A1_n141 Cl1-    0.238700    0.237100    0.279678    2.000000 Uiso  1.0000
 Cl6_A1_n141 Cl1-    0.761300    0.762900    0.279678    2.000000 Uiso  1.0000
 Li3_A1_n141 Li+    0.500000    0.500000    0.280000    2.000000 Uiso  0.2700
 Sc1_A1_n142 Sc3+    0.000000    0.000000    0.282000    2.000000 Uiso  1.0000
 Cl1_A1_n142 Cl1-    0.242100    0.768700    0.282000    2.000000 Uiso  1.0000
 Cl2_A1_n142 Cl1-    0.757900    0.231300    0.282000    2.000000 Uiso  1.0000
 Cl3_A1_n142 Cl1-    0.238700    0.237100    0.282322    2.000000 Uiso  1.0000
 Cl4_A1_n142 Cl1-    0.761300    0.762900    0.282322    2.000000 Uiso  1.0000
 Cl5_A1_n142 Cl1-    0.238700    0.237100    0.281678    2.000000 Uiso  1.0000
 Cl6_A1_n142 Cl1-    0.761300    0.762900    0.281678    2.000000 Uiso  1.0000
 Li3_A1_n142 Li+    0.500000    0.500000    0.282000    2.000000 Uiso  0.2700
 Sc1_A1_n143 Sc3+    0.000000    0.000000    0.284000    2.000000 Uiso  1.0000
 Cl1_A1_n143 Cl1-    0.242100    0.768700    0.284000    2.000000 Uiso  1.0000
 Cl2_A1_n143 Cl1-    0.757900    0.231300    0.284000    2.000000 Uiso  1.0000
 Cl3_A1_n143 Cl1-    0.238700    0.237100    0.284322    2.000000 Uiso  1.0000
 Cl4_A1_n143 Cl1-    0.761300    0.762900    0.284322    2.000000 Uiso  1.0000
 Cl5_A1_n143 Cl1-    0.238700    0.237100    0.283678    2.000000 Uiso  1.0000
 Cl6_A1_n143 Cl1-    0.761300    0.762900    0.283678    2.000000 Uiso  1.0000
 Li3_A1_n143 Li+    0.500000    0.500000    0.284000    2.000000 Uiso  0.2700
 Sc1_A1_n144 Sc3+    0.000000    0.000000    0.286000    2.000000 Uiso  1.0000
 Cl1_A1_n144 Cl1-    0.242100    0.768700    0.286000    2.000000 Uiso  1.0000
 Cl2_A1_n144 Cl1-    0.757900    0.231300    0.286000    2.000000 Uiso  1.0000
 Cl3_A1_n144 Cl1-    0.238700    0.237100    0.286322    2.000000 Uiso  1.0000
 Cl4_A1_n144 Cl1-    0.761300    0.762900    0.286322    2.000000 Uiso  1.0000
 Cl5_A1_n144 Cl1-    0.238700    0.237100    0.285678    2.000000 Uiso  1.0000
 Cl6_A1_n144 Cl1-    0.761300    0.762900    0.285678    2.000000 Uiso  1.0000
 Li3_A1_n144 Li+    0.500000    0.500000    0.286000    2.000000 Uiso  0.2700
 Sc1_A1_n145 Sc3+    0.000000    0.000000    0.288000    2.000000 Uiso  1.0000
 Cl1_A1_n145 Cl1-    0.242100    0.768700    0.288000    2.000000 Uiso  1.0000
 Cl2_A1_n145 Cl1-    0.757900    0.231300    0.288000    2.000000 Uiso  1.0000
 Cl3_A1_n145 Cl1-    0.238700    0.237100    0.288322    2.000000 Uiso  1.0000
 Cl4_A1_n145 Cl1-    0.761300    0.762900    0.288322    2.000000 Uiso  1.0000
 Cl5_A1_n145 Cl1-    0.238700    0.237100    0.287678    2.000000 Uiso  1.0000
 Cl6_A1_n145 Cl1-    0.761300    0.762900    0.287678    2.000000 Uiso  1.0000
 Li3_A1_n145 Li+    0.500000    0.500000    0.288000    2.000000 Uiso  0.2700
 Sc1_A1_n146 Sc3+    0.000000    0.000000    0.290000    2.000000 Uiso  1.0000
 Cl1_A1_n146 Cl1-    0.242100    0.768700    0.290000    2.000000 Uiso  1.0000
 Cl2_A1_n146 Cl1-    0.757900    0.231300    0.290000    2.000000 Uiso  1.0000
 Cl3_A1_n146 Cl1-    0.238700    0.237100    0.290322    2.000000 Uiso  1.0000
 Cl4_A1_n146 Cl1-    0.761300    0.762900    0.290322    2.000000 Uiso  1.0000
 Cl5_A1_n146 Cl1-    0.238700    0.237100    0.289678    2.000000 Uiso  1.0000
 Cl6_A1_n146 Cl1-    0.761300    0.762900    0.289678    2.000000 Uiso  1.0000
 Li3_A1_n146 Li+    0.500000    0.500000    0.290000    2.000000 Uiso  0.2700
 Sc1_A1_n147 Sc3+    0.000000    0.000000    0.292000    2.000000 Uiso  1.0000
 Cl1_A1_n147 Cl1-    0.242100    0.768700    0.292000    2.000000 Uiso  1.0000
 Cl2_A1_n147 Cl1-    0.757900    0.231300    0.292000    2.000000 Uiso  1.0000
 Cl3_A1_n147 Cl1-    0.238700    0.237100    0.292322    2.000000 Uiso  1.0000
 Cl4_A1_n147 Cl1-    0.761300    0.762900    0.292322    2.000000 Uiso  1.0000
 Cl5_A1_n147 Cl1-    0.238700    0.237100    0.291678    2.000000 Uiso  1.0000
 Cl6_A1_n147 Cl1-    0.761300    0.762900    0.291678    2.000000 Uiso  1.0000
 Li3_A1_n147 Li+    0.500000    0.500000    0.292000    2.000000 Uiso  0.2700
 Sc1_A1_n148 Sc3+    0.000000    0.000000    0.294000    2.000000 Uiso  1.0000
 Cl1_A1_n148 Cl1-    0.242100    0.768700    0.294000    2.000000 Uiso  1.0000
 Cl2_A1_n148 Cl1-    0.757900    0.231300    0.294000    2.000000 Uiso  1.0000
 Cl3_A1_n148 Cl1-    0.238700    0.237100    0.294322    2.000000 Uiso  1.0000
 Cl4_A1_n148 Cl1-    0.761300    0.762900    0.294322    2.000000 Uiso  1.0000
 Cl5_A1_n148 Cl1-    0.238700    0.237100    0.293678    2.000000 Uiso  1.0000
 Cl6_A1_n148 Cl1-    0.761300    0.762900    0.293678    2.000000 Uiso  1.0000
 Li3_A1_n148 Li+    0.500000    0.500000    0.294000    2.000000 Uiso  0.2700
 Sc1_A1_n149 Sc3+    0.000000    0.000000    0.296000    2.000000 Uiso  1.0000
 Cl1_A1_n149 Cl1-    0.242100    0.768700    0.296000    2.000000 Uiso  1.0000
 Cl2_A1_n149 Cl1-    0.757900    0.231300    0.296000    2.000000 Uiso  1.0000
 Cl3_A1_n149 Cl1-    0.238700    0.237100    0.296322    2.000000 Uiso  1.0000
 Cl4_A1_n149 Cl1-    0.761300    0.762900    0.296322    2.000000 Uiso  1.0000
 Cl5_A1_n149 Cl1-    0.238700    0.237100    0.295678    2.000000 Uiso  1.0000
 Cl6_A1_n149 Cl1-    0.761300    0.762900    0.295678    2.000000 Uiso  1.0000
 Li3_A1_n149 Li+    0.500000    0.500000    0.296000    2.000000 Uiso  0.2700
 Sc1_A1_n150 Sc3+    0.000000    0.000000    0.298000    2.000000 Uiso  1.0000
 Cl1_A1_n150 Cl1-    0.242100    0.768700    0.298000    2.000000 Uiso  1.0000
 Cl2_A1_n150 Cl1-    0.757900    0.231300    0.298000    2.000000 Uiso  1.0000
 Cl3_A1_n150 Cl1-    0.238700    0.237100    0.298322    2.000000 Uiso  1.0000
 Cl4_A1_n150 Cl1-    0.761300    0.762900    0.298322    2.000000 Uiso  1.0000
 Cl5_A1_n150 Cl1-    0.238700    0.237100    0.297678    2.000000 Uiso  1.0000
 Cl6_A1_n150 Cl1-    0.761300    0.762900    0.297678    2.000000 Uiso  1.0000
 Li3_A1_n150 Li+    0.500000    0.500000    0.298000    2.000000 Uiso  0.2700
 Sc1_A1_n151 Sc3+    0.000000    0.000000    0.300000    2.000000 Uiso  1.0000
 Cl1_A1_n151 Cl1-    0.242100    0.768700    0.300000    2.000000 Uiso  1.0000
 Cl2_A1_n151 Cl1-    0.757900    0.231300    0.300000    2.000000 Uiso  1.0000
 Cl3_A1_n151 Cl1-    0.238700    0.237100    0.300322    2.000000 Uiso  1.0000
 Cl4_A1_n151 Cl1-    0.761300    0.762900    0.300322    2.000000 Uiso  1.0000
 Cl5_A1_n151 Cl1-    0.238700    0.237100    0.299678    2.000000 Uiso  1.0000
 Cl6_A1_n151 Cl1-    0.761300    0.762900    0.299678    2.000000 Uiso  1.0000
 Li3_A1_n151 Li+    0.500000    0.500000    0.300000    2.000000 Uiso  0.2700
 Sc1_A1_n152 Sc3+    0.000000    0.000000    0.302000    2.000000 Uiso  1.0000
 Cl1_A1_n152 Cl1-    0.242100    0.768700    0.302000    2.000000 Uiso  1.0000
 Cl2_A1_n152 Cl1-    0.757900    0.231300    0.302000    2.000000 Uiso  1.0000
 Cl3_A1_n152 Cl1-    0.238700    0.237100    0.302322    2.000000 Uiso  1.0000
 Cl4_A1_n152 Cl1-    0.761300    0.762900    0.302322    2.000000 Uiso  1.0000
 Cl5_A1_n152 Cl1-    0.238700    0.237100    0.301678    2.000000 Uiso  1.0000
 Cl6_A1_n152 Cl1-    0.761300    0.762900    0.301678    2.000000 Uiso  1.0000
 Li3_A1_n152 Li+    0.500000    0.500000    0.302000    2.000000 Uiso  0.2700
 Sc1_A1_n153 Sc3+    0.000000    0.000000    0.304000    2.000000 Uiso  1.0000
 Cl1_A1_n153 Cl1-    0.242100    0.768700    0.304000    2.000000 Uiso  1.0000
 Cl2_A1_n153 Cl1-    0.757900    0.231300    0.304000    2.000000 Uiso  1.0000
 Cl3_A1_n153 Cl1-    0.238700    0.237100    0.304322    2.000000 Uiso  1.0000
 Cl4_A1_n153 Cl1-    0.761300    0.762900    0.304322    2.000000 Uiso  1.0000
 Cl5_A1_n153 Cl1-    0.238700    0.237100    0.303678    2.000000 Uiso  1.0000
 Cl6_A1_n153 Cl1-    0.761300    0.762900    0.303678    2.000000 Uiso  1.0000
 Li3_A1_n153 Li+    0.500000    0.500000    0.304000    2.000000 Uiso  0.2700
 Sc1_A1_n154 Sc3+    0.000000    0.000000    0.306000    2.000000 Uiso  1.0000
 Cl1_A1_n154 Cl1-    0.242100    0.768700    0.306000    2.000000 Uiso  1.0000
 Cl2_A1_n154 Cl1-    0.757900    0.231300    0.306000    2.000000 Uiso  1.0000
 Cl3_A1_n154 Cl1-    0.238700    0.237100    0.306322    2.000000 Uiso  1.0000
 Cl4_A1_n154 Cl1-    0.761300    0.762900    0.306322    2.000000 Uiso  1.0000
 Cl5_A1_n154 Cl1-    0.238700    0.237100    0.305678    2.000000 Uiso  1.0000
 Cl6_A1_n154 Cl1-    0.761300    0.762900    0.305678    2.000000 Uiso  1.0000
 Li3_A1_n154 Li+    0.500000    0.500000    0.306000    2.000000 Uiso  0.2700
 Sc1_A1_n155 Sc3+    0.000000    0.000000    0.308000    2.000000 Uiso  1.0000
 Cl1_A1_n155 Cl1-    0.242100    0.768700    0.308000    2.000000 Uiso  1.0000
 Cl2_A1_n155 Cl1-    0.757900    0.231300    0.308000    2.000000 Uiso  1.0000
 Cl3_A1_n155 Cl1-    0.238700    0.237100    0.308322    2.000000 Uiso  1.0000
 Cl4_A1_n155 Cl1-    0.761300    0.762900    0.308322    2.000000 Uiso  1.0000
 Cl5_A1_n155 Cl1-    0.238700    0.237100    0.307678    2.000000 Uiso  1.0000
 Cl6_A1_n155 Cl1-    0.761300    0.762900    0.307678    2.000000 Uiso  1.0000
 Li3_A1_n155 Li+    0.500000    0.500000    0.308000    2.000000 Uiso  0.2700
 Sc1_A1_n156 Sc3+    0.000000    0.000000    0.310000    2.000000 Uiso  1.0000
 Cl1_A1_n156 Cl1-    0.242100    0.768700    0.310000    2.000000 Uiso  1.0000
 Cl2_A1_n156 Cl1-    0.757900    0.231300    0.310000    2.000000 Uiso  1.0000
 Cl3_A1_n156 Cl1-    0.238700    0.237100    0.310322    2.000000 Uiso  1.0000
 Cl4_A1_n156 Cl1-    0.761300    0.762900    0.310322    2.000000 Uiso  1.0000
 Cl5_A1_n156 Cl1-    0.238700    0.237100    0.309678    2.000000 Uiso  1.0000
 Cl6_A1_n156 Cl1-    0.761300    0.762900    0.309678    2.000000 Uiso  1.0000
 Li3_A1_n156 Li+    0.500000    0.500000    0.310000    2.000000 Uiso  0.2700
 Sc1_A1_n157 Sc3+    0.000000    0.000000    0.312000    2.000000 Uiso  1.0000
 Cl1_A1_n157 Cl1-    0.242100    0.768700    0.312000    2.000000 Uiso  1.0000
 Cl2_A1_n157 Cl1-    0.757900    0.231300    0.312000    2.000000 Uiso  1.0000
 Cl3_A1_n157 Cl1-    0.238700    0.237100    0.312322    2.000000 Uiso  1.0000
 Cl4_A1_n157 Cl1-    0.761300    0.762900    0.312322    2.000000 Uiso  1.0000
 Cl5_A1_n157 Cl1-    0.238700    0.237100    0.311678    2.000000 Uiso  1.0000
 Cl6_A1_n157 Cl1-    0.761300    0.762900    0.311678    2.000000 Uiso  1.0000
 Li3_A1_n157 Li+    0.500000    0.500000    0.312000    2.000000 Uiso  0.2700
 Sc1_A1_n158 Sc3+    0.000000    0.000000    0.314000    2.000000 Uiso  1.0000
 Cl1_A1_n158 Cl1-    0.242100    0.768700    0.314000    2.000000 Uiso  1.0000
 Cl2_A1_n158 Cl1-    0.757900    0.231300    0.314000    2.000000 Uiso  1.0000
 Cl3_A1_n158 Cl1-    0.238700    0.237100    0.314322    2.000000 Uiso  1.0000
 Cl4_A1_n158 Cl1-    0.761300    0.762900    0.314322    2.000000 Uiso  1.0000
 Cl5_A1_n158 Cl1-    0.238700    0.237100    0.313678    2.000000 Uiso  1.0000
 Cl6_A1_n158 Cl1-    0.761300    0.762900    0.313678    2.000000 Uiso  1.0000
 Li3_A1_n158 Li+    0.500000    0.500000    0.314000    2.000000 Uiso  0.2700
 Sc1_A1_n159 Sc3+    0.000000    0.000000    0.316000    2.000000 Uiso  1.0000
 Cl1_A1_n159 Cl1-    0.242100    0.768700    0.316000    2.000000 Uiso  1.0000
 Cl2_A1_n159 Cl1-    0.757900    0.231300    0.316000    2.000000 Uiso  1.0000
 Cl3_A1_n159 Cl1-    0.238700    0.237100    0.316322    2.000000 Uiso  1.0000
 Cl4_A1_n159 Cl1-    0.761300    0.762900    0.316322    2.000000 Uiso  1.0000
 Cl5_A1_n159 Cl1-    0.238700    0.237100    0.315678    2.000000 Uiso  1.0000
 Cl6_A1_n159 Cl1-    0.761300    0.762900    0.315678    2.000000 Uiso  1.0000
 Li3_A1_n159 Li+    0.500000    0.500000    0.316000    2.000000 Uiso  0.2700
 Sc1_A1_n160 Sc3+    0.000000    0.000000    0.318000    2.000000 Uiso  1.0000
 Cl1_A1_n160 Cl1-    0.242100    0.768700    0.318000    2.000000 Uiso  1.0000
 Cl2_A1_n160 Cl1-    0.757900    0.231300    0.318000    2.000000 Uiso  1.0000
 Cl3_A1_n160 Cl1-    0.238700    0.237100    0.318322    2.000000 Uiso  1.0000
 Cl4_A1_n160 Cl1-    0.761300    0.762900    0.318322    2.000000 Uiso  1.0000
 Cl5_A1_n160 Cl1-    0.238700    0.237100    0.317678    2.000000 Uiso  1.0000
 Cl6_A1_n160 Cl1-    0.761300    0.762900    0.317678    2.000000 Uiso  1.0000
 Li3_A1_n160 Li+    0.500000    0.500000    0.318000    2.000000 Uiso  0.2700
 Sc1_A1_n161 Sc3+    0.000000    0.000000    0.320000    2.000000 Uiso  1.0000
 Cl1_A1_n161 Cl1-    0.242100    0.768700    0.320000    2.000000 Uiso  1.0000
 Cl2_A1_n161 Cl1-    0.757900    0.231300    0.320000    2.000000 Uiso  1.0000
 Cl3_A1_n161 Cl1-    0.238700    0.237100    0.320322    2.000000 Uiso  1.0000
 Cl4_A1_n161 Cl1-    0.761300    0.762900    0.320322    2.000000 Uiso  1.0000
 Cl5_A1_n161 Cl1-    0.238700    0.237100    0.319678    2.000000 Uiso  1.0000
 Cl6_A1_n161 Cl1-    0.761300    0.762900    0.319678    2.000000 Uiso  1.0000
 Li3_A1_n161 Li+    0.500000    0.500000    0.320000    2.000000 Uiso  0.2700
 Sc1_A1_n162 Sc3+    0.000000    0.000000    0.322000    2.000000 Uiso  1.0000
 Cl1_A1_n162 Cl1-    0.242100    0.768700    0.322000    2.000000 Uiso  1.0000
 Cl2_A1_n162 Cl1-    0.757900    0.231300    0.322000    2.000000 Uiso  1.0000
 Cl3_A1_n162 Cl1-    0.238700    0.237100    0.322322    2.000000 Uiso  1.0000
 Cl4_A1_n162 Cl1-    0.761300    0.762900    0.322322    2.000000 Uiso  1.0000
 Cl5_A1_n162 Cl1-    0.238700    0.237100    0.321678    2.000000 Uiso  1.0000
 Cl6_A1_n162 Cl1-    0.761300    0.762900    0.321678    2.000000 Uiso  1.0000
 Li3_A1_n162 Li+    0.500000    0.500000    0.322000    2.000000 Uiso  0.2700
 Sc1_A1_n163 Sc3+    0.000000    0.000000    0.324000    2.000000 Uiso  1.0000
 Cl1_A1_n163 Cl1-    0.242100    0.768700    0.324000    2.000000 Uiso  1.0000
 Cl2_A1_n163 Cl1-    0.757900    0.231300    0.324000    2.000000 Uiso  1.0000
 Cl3_A1_n163 Cl1-    0.238700    0.237100    0.324322    2.000000 Uiso  1.0000
 Cl4_A1_n163 Cl1-    0.761300    0.762900    0.324322    2.000000 Uiso  1.0000
 Cl5_A1_n163 Cl1-    0.238700    0.237100    0.323678    2.000000 Uiso  1.0000
 Cl6_A1_n163 Cl1-    0.761300    0.762900    0.323678    2.000000 Uiso  1.0000
 Li3_A1_n163 Li+    0.500000    0.500000    0.324000    2.000000 Uiso  0.2700
 Sc1_A1_n164 Sc3+    0.000000    0.000000    0.326000    2.000000 Uiso  1.0000
 Cl1_A1_n164 Cl1-    0.242100    0.768700    0.326000    2.000000 Uiso  1.0000
 Cl2_A1_n164 Cl1-    0.757900    0.231300    0.326000    2.000000 Uiso  1.0000
 Cl3_A1_n164 Cl1-    0.238700    0.237100    0.326322    2.000000 Uiso  1.0000
 Cl4_A1_n164 Cl1-    0.761300    0.762900    0.326322    2.000000 Uiso  1.0000
 Cl5_A1_n164 Cl1-    0.238700    0.237100    0.325678    2.000000 Uiso  1.0000
 Cl6_A1_n164 Cl1-    0.761300    0.762900    0.325678    2.000000 Uiso  1.0000
 Li3_A1_n164 Li+    0.500000    0.500000    0.326000    2.000000 Uiso  0.2700
 Sc1_A1_n165 Sc3+    0.000000    0.000000    0.328000    2.000000 Uiso  1.0000
 Cl1_A1_n165 Cl1-    0.242100    0.768700    0.328000    2.000000 Uiso  1.0000
 Cl2_A1_n165 Cl1-    0.757900    0.231300    0.328000    2.000000 Uiso  1.0000
 Cl3_A1_n165 Cl1-    0.238700    0.237100    0.328322    2.000000 Uiso  1.0000
 Cl4_A1_n165 Cl1-    0.761300    0.762900    0.328322    2.000000 Uiso  1.0000
 Cl5_A1_n165 Cl1-    0.238700    0.237100    0.327678    2.000000 Uiso  1.0000
 Cl6_A1_n165 Cl1-    0.761300    0.762900    0.327678    2.000000 Uiso  1.0000
 Li3_A1_n165 Li+    0.500000    0.500000    0.328000    2.000000 Uiso  0.2700
 Sc1_A1_n166 Sc3+    0.000000    0.000000    0.330000    2.000000 Uiso  1.0000
 Cl1_A1_n166 Cl1-    0.242100    0.768700    0.330000    2.000000 Uiso  1.0000
 Cl2_A1_n166 Cl1-    0.757900    0.231300    0.330000    2.000000 Uiso  1.0000
 Cl3_A1_n166 Cl1-    0.238700    0.237100    0.330322    2.000000 Uiso  1.0000
 Cl4_A1_n166 Cl1-    0.761300    0.762900    0.330322    2.000000 Uiso  1.0000
 Cl5_A1_n166 Cl1-    0.238700    0.237100    0.329678    2.000000 Uiso  1.0000
 Cl6_A1_n166 Cl1-    0.761300    0.762900    0.329678    2.000000 Uiso  1.0000
 Li3_A1_n166 Li+    0.500000    0.500000    0.330000    2.000000 Uiso  0.2700
 Sc1_A1_n167 Sc3+    0.000000    0.000000    0.332000    2.000000 Uiso  1.0000
 Cl1_A1_n167 Cl1-    0.242100    0.768700    0.332000    2.000000 Uiso  1.0000
 Cl2_A1_n167 Cl1-    0.757900    0.231300    0.332000    2.000000 Uiso  1.0000
 Cl3_A1_n167 Cl1-    0.238700    0.237100    0.332322    2.000000 Uiso  1.0000
 Cl4_A1_n167 Cl1-    0.761300    0.762900    0.332322    2.000000 Uiso  1.0000
 Cl5_A1_n167 Cl1-    0.238700    0.237100    0.331678    2.000000 Uiso  1.0000
 Cl6_A1_n167 Cl1-    0.761300    0.762900    0.331678    2.000000 Uiso  1.0000
 Li3_A1_n167 Li+    0.500000    0.500000    0.332000    2.000000 Uiso  0.2700
 Sc1_A1_n168 Sc3+    0.000000    0.000000    0.334000    2.000000 Uiso  1.0000
 Cl1_A1_n168 Cl1-    0.242100    0.768700    0.334000    2.000000 Uiso  1.0000
 Cl2_A1_n168 Cl1-    0.757900    0.231300    0.334000    2.000000 Uiso  1.0000
 Cl3_A1_n168 Cl1-    0.238700    0.237100    0.334322    2.000000 Uiso  1.0000
 Cl4_A1_n168 Cl1-    0.761300    0.762900    0.334322    2.000000 Uiso  1.0000
 Cl5_A1_n168 Cl1-    0.238700    0.237100    0.333678    2.000000 Uiso  1.0000
 Cl6_A1_n168 Cl1-    0.761300    0.762900    0.333678    2.000000 Uiso  1.0000
 Li3_A1_n168 Li+    0.500000    0.500000    0.334000    2.000000 Uiso  0.2700
 Sc1_A1_n169 Sc3+    0.000000    0.000000    0.336000    2.000000 Uiso  1.0000
 Cl1_A1_n169 Cl1-    0.242100    0.768700    0.336000    2.000000 Uiso  1.0000
 Cl2_A1_n169 Cl1-    0.757900    0.231300    0.336000    2.000000 Uiso  1.0000
 Cl3_A1_n169 Cl1-    0.238700    0.237100    0.336322    2.000000 Uiso  1.0000
 Cl4_A1_n169 Cl1-    0.761300    0.762900    0.336322    2.000000 Uiso  1.0000
 Cl5_A1_n169 Cl1-    0.238700    0.237100    0.335678    2.000000 Uiso  1.0000
 Cl6_A1_n169 Cl1-    0.761300    0.762900    0.335678    2.000000 Uiso  1.0000
 Li3_A1_n169 Li+    0.500000    0.500000    0.336000    2.000000 Uiso  0.2700
 Sc1_A1_n170 Sc3+    0.000000    0.000000    0.338000    2.000000 Uiso  1.0000
 Cl1_A1_n170 Cl1-    0.242100    0.768700    0.338000    2.000000 Uiso  1.0000
 Cl2_A1_n170 Cl1-    0.757900    0.231300    0.338000    2.000000 Uiso  1.0000
 Cl3_A1_n170 Cl1-    0.238700    0.237100    0.338322    2.000000 Uiso  1.0000
 Cl4_A1_n170 Cl1-    0.761300    0.762900    0.338322    2.000000 Uiso  1.0000
 Cl5_A1_n170 Cl1-    0.238700    0.237100    0.337678    2.000000 Uiso  1.0000
 Cl6_A1_n170 Cl1-    0.761300    0.762900    0.337678    2.000000 Uiso  1.0000
 Li3_A1_n170 Li+    0.500000    0.500000    0.338000    2.000000 Uiso  0.2700
 Sc1_A1_n171 Sc3+    0.000000    0.000000    0.340000    2.000000 Uiso  1.0000
 Cl1_A1_n171 Cl1-    0.242100    0.768700    0.340000    2.000000 Uiso  1.0000
 Cl2_A1_n171 Cl1-    0.757900    0.231300    0.340000    2.000000 Uiso  1.0000
 Cl3_A1_n171 Cl1-    0.238700    0.237100    0.340322    2.000000 Uiso  1.0000
 Cl4_A1_n171 Cl1-    0.761300    0.762900    0.340322    2.000000 Uiso  1.0000
 Cl5_A1_n171 Cl1-    0.238700    0.237100    0.339678    2.000000 Uiso  1.0000
 Cl6_A1_n171 Cl1-    0.761300    0.762900    0.339678    2.000000 Uiso  1.0000
 Li3_A1_n171 Li+    0.500000    0.500000    0.340000    2.000000 Uiso  0.2700
 Sc1_A1_n172 Sc3+    0.000000    0.000000    0.342000    2.000000 Uiso  1.0000
 Cl1_A1_n172 Cl1-    0.242100    0.768700    0.342000    2.000000 Uiso  1.0000
 Cl2_A1_n172 Cl1-    0.757900    0.231300    0.342000    2.000000 Uiso  1.0000
 Cl3_A1_n172 Cl1-    0.238700    0.237100    0.342322    2.000000 Uiso  1.0000
 Cl4_A1_n172 Cl1-    0.761300    0.762900    0.342322    2.000000 Uiso  1.0000
 Cl5_A1_n172 Cl1-    0.238700    0.237100    0.341678    2.000000 Uiso  1.0000
 Cl6_A1_n172 Cl1-    0.761300    0.762900    0.341678    2.000000 Uiso  1.0000
 Li3_A1_n172 Li+    0.500000    0.500000    0.342000    2.000000 Uiso  0.2700
 Sc1_A1_n173 Sc3+    0.000000    0.000000    0.344000    2.000000 Uiso  1.0000
 Cl1_A1_n173 Cl1-    0.242100    0.768700    0.344000    2.000000 Uiso  1.0000
 Cl2_A1_n173 Cl1-    0.757900    0.231300    0.344000    2.000000 Uiso  1.0000
 Cl3_A1_n173 Cl1-    0.238700    0.237100    0.344322    2.000000 Uiso  1.0000
 Cl4_A1_n173 Cl1-    0.761300    0.762900    0.344322    2.000000 Uiso  1.0000
 Cl5_A1_n173 Cl1-    0.238700    0.237100    0.343678    2.000000 Uiso  1.0000
 Cl6_A1_n173 Cl1-    0.761300    0.762900    0.343678    2.000000 Uiso  1.0000
 Li3_A1_n173 Li+    0.500000    0.500000    0.344000    2.000000 Uiso  0.2700
 Sc1_A1_n174 Sc3+    0.000000    0.000000    0.346000    2.000000 Uiso  1.0000
 Cl1_A1_n174 Cl1-    0.242100    0.768700    0.346000    2.000000 Uiso  1.0000
 Cl2_A1_n174 Cl1-    0.757900    0.231300    0.346000    2.000000 Uiso  1.0000
 Cl3_A1_n174 Cl1-    0.238700    0.237100    0.346322    2.000000 Uiso  1.0000
 Cl4_A1_n174 Cl1-    0.761300    0.762900    0.346322    2.000000 Uiso  1.0000
 Cl5_A1_n174 Cl1-    0.238700    0.237100    0.345678    2.000000 Uiso  1.0000
 Cl6_A1_n174 Cl1-    0.761300    0.762900    0.345678    2.000000 Uiso  1.0000
 Li3_A1_n174 Li+    0.500000    0.500000    0.346000    2.000000 Uiso  0.2700
 Sc1_A1_n175 Sc3+    0.000000    0.000000    0.348000    2.000000 Uiso  1.0000
 Cl1_A1_n175 Cl1-    0.242100    0.768700    0.348000    2.000000 Uiso  1.0000
 Cl2_A1_n175 Cl1-    0.757900    0.231300    0.348000    2.000000 Uiso  1.0000
 Cl3_A1_n175 Cl1-    0.238700    0.237100    0.348322    2.000000 Uiso  1.0000
 Cl4_A1_n175 Cl1-    0.761300    0.762900    0.348322    2.000000 Uiso  1.0000
 Cl5_A1_n175 Cl1-    0.238700    0.237100    0.347678    2.000000 Uiso  1.0000
 Cl6_A1_n175 Cl1-    0.761300    0.762900    0.347678    2.000000 Uiso  1.0000
 Li3_A1_n175 Li+    0.500000    0.500000    0.348000    2.000000 Uiso  0.2700
 Sc1_A1_n176 Sc3+    0.000000    0.000000    0.350000    2.000000 Uiso  1.0000
 Cl1_A1_n176 Cl1-    0.242100    0.768700    0.350000    2.000000 Uiso  1.0000
 Cl2_A1_n176 Cl1-    0.757900    0.231300    0.350000    2.000000 Uiso  1.0000
 Cl3_A1_n176 Cl1-    0.238700    0.237100    0.350322    2.000000 Uiso  1.0000
 Cl4_A1_n176 Cl1-    0.761300    0.762900    0.350322    2.000000 Uiso  1.0000
 Cl5_A1_n176 Cl1-    0.238700    0.237100    0.349678    2.000000 Uiso  1.0000
 Cl6_A1_n176 Cl1-    0.761300    0.762900    0.349678    2.000000 Uiso  1.0000
 Li3_A1_n176 Li+    0.500000    0.500000    0.350000    2.000000 Uiso  0.2700
 Sc1_A1_n177 Sc3+    0.000000    0.000000    0.352000    2.000000 Uiso  1.0000
 Cl1_A1_n177 Cl1-    0.242100    0.768700    0.352000    2.000000 Uiso  1.0000
 Cl2_A1_n177 Cl1-    0.757900    0.231300    0.352000    2.000000 Uiso  1.0000
 Cl3_A1_n177 Cl1-    0.238700    0.237100    0.352322    2.000000 Uiso  1.0000
 Cl4_A1_n177 Cl1-    0.761300    0.762900    0.352322    2.000000 Uiso  1.0000
 Cl5_A1_n177 Cl1-    0.238700    0.237100    0.351678    2.000000 Uiso  1.0000
 Cl6_A1_n177 Cl1-    0.761300    0.762900    0.351678    2.000000 Uiso  1.0000
 Li3_A1_n177 Li+    0.500000    0.500000    0.352000    2.000000 Uiso  0.2700
 Sc1_A1_n178 Sc3+    0.000000    0.000000    0.354000    2.000000 Uiso  1.0000
 Cl1_A1_n178 Cl1-    0.242100    0.768700    0.354000    2.000000 Uiso  1.0000
 Cl2_A1_n178 Cl1-    0.757900    0.231300    0.354000    2.000000 Uiso  1.0000
 Cl3_A1_n178 Cl1-    0.238700    0.237100    0.354322    2.000000 Uiso  1.0000
 Cl4_A1_n178 Cl1-    0.761300    0.762900    0.354322    2.000000 Uiso  1.0000
 Cl5_A1_n178 Cl1-    0.238700    0.237100    0.353678    2.000000 Uiso  1.0000
 Cl6_A1_n178 Cl1-    0.761300    0.762900    0.353678    2.000000 Uiso  1.0000
 Li3_A1_n178 Li+    0.500000    0.500000    0.354000    2.000000 Uiso  0.2700
 Sc1_A1_n179 Sc3+    0.000000    0.000000    0.356000    2.000000 Uiso  1.0000
 Cl1_A1_n179 Cl1-    0.242100    0.768700    0.356000    2.000000 Uiso  1.0000
 Cl2_A1_n179 Cl1-    0.757900    0.231300    0.356000    2.000000 Uiso  1.0000
 Cl3_A1_n179 Cl1-    0.238700    0.237100    0.356322    2.000000 Uiso  1.0000
 Cl4_A1_n179 Cl1-    0.761300    0.762900    0.356322    2.000000 Uiso  1.0000
 Cl5_A1_n179 Cl1-    0.238700    0.237100    0.355678    2.000000 Uiso  1.0000
 Cl6_A1_n179 Cl1-    0.761300    0.762900    0.355678    2.000000 Uiso  1.0000
 Li3_A1_n179 Li+    0.500000    0.500000    0.356000    2.000000 Uiso  0.2700
 Sc1_A1_n180 Sc3+    0.000000    0.000000    0.358000    2.000000 Uiso  1.0000
 Cl1_A1_n180 Cl1-    0.242100    0.768700    0.358000    2.000000 Uiso  1.0000
 Cl2_A1_n180 Cl1-    0.757900    0.231300    0.358000    2.000000 Uiso  1.0000
 Cl3_A1_n180 Cl1-    0.238700    0.237100    0.358322    2.000000 Uiso  1.0000
 Cl4_A1_n180 Cl1-    0.761300    0.762900    0.358322    2.000000 Uiso  1.0000
 Cl5_A1_n180 Cl1-    0.238700    0.237100    0.357678    2.000000 Uiso  1.0000
 Cl6_A1_n180 Cl1-    0.761300    0.762900    0.357678    2.000000 Uiso  1.0000
 Li3_A1_n180 Li+    0.500000    0.500000    0.358000    2.000000 Uiso  0.2700
 Sc1_A1_n181 Sc3+    0.000000    0.000000    0.360000    2.000000 Uiso  1.0000
 Cl1_A1_n181 Cl1-    0.242100    0.768700    0.360000    2.000000 Uiso  1.0000
 Cl2_A1_n181 Cl1-    0.757900    0.231300    0.360000    2.000000 Uiso  1.0000
 Cl3_A1_n181 Cl1-    0.238700    0.237100    0.360322    2.000000 Uiso  1.0000
 Cl4_A1_n181 Cl1-    0.761300    0.762900    0.360322    2.000000 Uiso  1.0000
 Cl5_A1_n181 Cl1-    0.238700    0.237100    0.359678    2.000000 Uiso  1.0000
 Cl6_A1_n181 Cl1-    0.761300    0.762900    0.359678    2.000000 Uiso  1.0000
 Li3_A1_n181 Li+    0.500000    0.500000    0.360000    2.000000 Uiso  0.2700
 Sc1_A1_n182 Sc3+    0.000000    0.000000    0.362000    2.000000 Uiso  1.0000
 Cl1_A1_n182 Cl1-    0.242100    0.768700    0.362000    2.000000 Uiso  1.0000
 Cl2_A1_n182 Cl1-    0.757900    0.231300    0.362000    2.000000 Uiso  1.0000
 Cl3_A1_n182 Cl1-    0.238700    0.237100    0.362322    2.000000 Uiso  1.0000
 Cl4_A1_n182 Cl1-    0.761300    0.762900    0.362322    2.000000 Uiso  1.0000
 Cl5_A1_n182 Cl1-    0.238700    0.237100    0.361678    2.000000 Uiso  1.0000
 Cl6_A1_n182 Cl1-    0.761300    0.762900    0.361678    2.000000 Uiso  1.0000
 Li3_A1_n182 Li+    0.500000    0.500000    0.362000    2.000000 Uiso  0.2700
 Sc1_A1_n183 Sc3+    0.000000    0.000000    0.364000    2.000000 Uiso  1.0000
 Cl1_A1_n183 Cl1-    0.242100    0.768700    0.364000    2.000000 Uiso  1.0000
 Cl2_A1_n183 Cl1-    0.757900    0.231300    0.364000    2.000000 Uiso  1.0000
 Cl3_A1_n183 Cl1-    0.238700    0.237100    0.364322    2.000000 Uiso  1.0000
 Cl4_A1_n183 Cl1-    0.761300    0.762900    0.364322    2.000000 Uiso  1.0000
 Cl5_A1_n183 Cl1-    0.238700    0.237100    0.363678    2.000000 Uiso  1.0000
 Cl6_A1_n183 Cl1-    0.761300    0.762900    0.363678    2.000000 Uiso  1.0000
 Li3_A1_n183 Li+    0.500000    0.500000    0.364000    2.000000 Uiso  0.2700
 Sc1_A1_n184 Sc3+    0.000000    0.000000    0.366000    2.000000 Uiso  1.0000
 Cl1_A1_n184 Cl1-    0.242100    0.768700    0.366000    2.000000 Uiso  1.0000
 Cl2_A1_n184 Cl1-    0.757900    0.231300    0.366000    2.000000 Uiso  1.0000
 Cl3_A1_n184 Cl1-    0.238700    0.237100    0.366322    2.000000 Uiso  1.0000
 Cl4_A1_n184 Cl1-    0.761300    0.762900    0.366322    2.000000 Uiso  1.0000
 Cl5_A1_n184 Cl1-    0.238700    0.237100    0.365678    2.000000 Uiso  1.0000
 Cl6_A1_n184 Cl1-    0.761300    0.762900    0.365678    2.000000 Uiso  1.0000
 Li3_A1_n184 Li+    0.500000    0.500000    0.366000    2.000000 Uiso  0.2700
 Sc1_A1_n185 Sc3+    0.000000    0.000000    0.368000    2.000000 Uiso  1.0000
 Cl1_A1_n185 Cl1-    0.242100    0.768700    0.368000    2.000000 Uiso  1.0000
 Cl2_A1_n185 Cl1-    0.757900    0.231300    0.368000    2.000000 Uiso  1.0000
 Cl3_A1_n185 Cl1-    0.238700    0.237100    0.368322    2.000000 Uiso  1.0000
 Cl4_A1_n185 Cl1-    0.761300    0.762900    0.368322    2.000000 Uiso  1.0000
 Cl5_A1_n185 Cl1-    0.238700    0.237100    0.367678    2.000000 Uiso  1.0000
 Cl6_A1_n185 Cl1-    0.761300    0.762900    0.367678    2.000000 Uiso  1.0000
 Li3_A1_n185 Li+    0.500000    0.500000    0.368000    2.000000 Uiso  0.2700
 Sc1_A1_n186 Sc3+    0.000000    0.000000    0.370000    2.000000 Uiso  1.0000
 Cl1_A1_n186 Cl1-    0.242100    0.768700    0.370000    2.000000 Uiso  1.0000
 Cl2_A1_n186 Cl1-    0.757900    0.231300    0.370000    2.000000 Uiso  1.0000
 Cl3_A1_n186 Cl1-    0.238700    0.237100    0.370322    2.000000 Uiso  1.0000
 Cl4_A1_n186 Cl1-    0.761300    0.762900    0.370322    2.000000 Uiso  1.0000
 Cl5_A1_n186 Cl1-    0.238700    0.237100    0.369678    2.000000 Uiso  1.0000
 Cl6_A1_n186 Cl1-    0.761300    0.762900    0.369678    2.000000 Uiso  1.0000
 Li3_A1_n186 Li+    0.500000    0.500000    0.370000    2.000000 Uiso  0.2700
 Sc1_A1_n187 Sc3+    0.000000    0.000000    0.372000    2.000000 Uiso  1.0000
 Cl1_A1_n187 Cl1-    0.242100    0.768700    0.372000    2.000000 Uiso  1.0000
 Cl2_A1_n187 Cl1-    0.757900    0.231300    0.372000    2.000000 Uiso  1.0000
 Cl3_A1_n187 Cl1-    0.238700    0.237100    0.372322    2.000000 Uiso  1.0000
 Cl4_A1_n187 Cl1-    0.761300    0.762900    0.372322    2.000000 Uiso  1.0000
 Cl5_A1_n187 Cl1-    0.238700    0.237100    0.371678    2.000000 Uiso  1.0000
 Cl6_A1_n187 Cl1-    0.761300    0.762900    0.371678    2.000000 Uiso  1.0000
 Li3_A1_n187 Li+    0.500000    0.500000    0.372000    2.000000 Uiso  0.2700
 Sc1_A1_n188 Sc3+    0.000000    0.000000    0.374000    2.000000 Uiso  1.0000
 Cl1_A1_n188 Cl1-    0.242100    0.768700    0.374000    2.000000 Uiso  1.0000
 Cl2_A1_n188 Cl1-    0.757900    0.231300    0.374000    2.000000 Uiso  1.0000
 Cl3_A1_n188 Cl1-    0.238700    0.237100    0.374322    2.000000 Uiso  1.0000
 Cl4_A1_n188 Cl1-    0.761300    0.762900    0.374322    2.000000 Uiso  1.0000
 Cl5_A1_n188 Cl1-    0.238700    0.237100    0.373678    2.000000 Uiso  1.0000
 Cl6_A1_n188 Cl1-    0.761300    0.762900    0.373678    2.000000 Uiso  1.0000
 Li3_A1_n188 Li+    0.500000    0.500000    0.374000    2.000000 Uiso  0.2700
 Sc1_A1_n189 Sc3+    0.000000    0.000000    0.376000    2.000000 Uiso  1.0000
 Cl1_A1_n189 Cl1-    0.242100    0.768700    0.376000    2.000000 Uiso  1.0000
 Cl2_A1_n189 Cl1-    0.757900    0.231300    0.376000    2.000000 Uiso  1.0000
 Cl3_A1_n189 Cl1-    0.238700    0.237100    0.376322    2.000000 Uiso  1.0000
 Cl4_A1_n189 Cl1-    0.761300    0.762900    0.376322    2.000000 Uiso  1.0000
 Cl5_A1_n189 Cl1-    0.238700    0.237100    0.375678    2.000000 Uiso  1.0000
 Cl6_A1_n189 Cl1-    0.761300    0.762900    0.375678    2.000000 Uiso  1.0000
 Li3_A1_n189 Li+    0.500000    0.500000    0.376000    2.000000 Uiso  0.2700
 Sc1_A1_n190 Sc3+    0.000000    0.000000    0.378000    2.000000 Uiso  1.0000
 Cl1_A1_n190 Cl1-    0.242100    0.768700    0.378000    2.000000 Uiso  1.0000
 Cl2_A1_n190 Cl1-    0.757900    0.231300    0.378000    2.000000 Uiso  1.0000
 Cl3_A1_n190 Cl1-    0.238700    0.237100    0.378322    2.000000 Uiso  1.0000
 Cl4_A1_n190 Cl1-    0.761300    0.762900    0.378322    2.000000 Uiso  1.0000
 Cl5_A1_n190 Cl1-    0.238700    0.237100    0.377678    2.000000 Uiso  1.0000
 Cl6_A1_n190 Cl1-    0.761300    0.762900    0.377678    2.000000 Uiso  1.0000
 Li3_A1_n190 Li+    0.500000    0.500000    0.378000    2.000000 Uiso  0.2700
 Sc1_A1_n191 Sc3+    0.000000    0.000000    0.380000    2.000000 Uiso  1.0000
 Cl1_A1_n191 Cl1-    0.242100    0.768700    0.380000    2.000000 Uiso  1.0000
 Cl2_A1_n191 Cl1-    0.757900    0.231300    0.380000    2.000000 Uiso  1.0000
 Cl3_A1_n191 Cl1-    0.238700    0.237100    0.380322    2.000000 Uiso  1.0000
 Cl4_A1_n191 Cl1-    0.761300    0.762900    0.380322    2.000000 Uiso  1.0000
 Cl5_A1_n191 Cl1-    0.238700    0.237100    0.379678    2.000000 Uiso  1.0000
 Cl6_A1_n191 Cl1-    0.761300    0.762900    0.379678    2.000000 Uiso  1.0000
 Li3_A1_n191 Li+    0.500000    0.500000    0.380000    2.000000 Uiso  0.2700
 Sc1_A1_n192 Sc3+    0.000000    0.000000    0.382000    2.000000 Uiso  1.0000
 Cl1_A1_n192 Cl1-    0.242100    0.768700    0.382000    2.000000 Uiso  1.0000
 Cl2_A1_n192 Cl1-    0.757900    0.231300    0.382000    2.000000 Uiso  1.0000
 Cl3_A1_n192 Cl1-    0.238700    0.237100    0.382322    2.000000 Uiso  1.0000
 Cl4_A1_n192 Cl1-    0.761300    0.762900    0.382322    2.000000 Uiso  1.0000
 Cl5_A1_n192 Cl1-    0.238700    0.237100    0.381678    2.000000 Uiso  1.0000
 Cl6_A1_n192 Cl1-    0.761300    0.762900    0.381678    2.000000 Uiso  1.0000
 Li3_A1_n192 Li+    0.500000    0.500000    0.382000    2.000000 Uiso  0.2700
 Sc1_A1_n193 Sc3+    0.000000    0.000000    0.384000    2.000000 Uiso  1.0000
 Cl1_A1_n193 Cl1-    0.242100    0.768700    0.384000    2.000000 Uiso  1.0000
 Cl2_A1_n193 Cl1-    0.757900    0.231300    0.384000    2.000000 Uiso  1.0000
 Cl3_A1_n193 Cl1-    0.238700    0.237100    0.384322    2.000000 Uiso  1.0000
 Cl4_A1_n193 Cl1-    0.761300    0.762900    0.384322    2.000000 Uiso  1.0000
 Cl5_A1_n193 Cl1-    0.238700    0.237100    0.383678    2.000000 Uiso  1.0000
 Cl6_A1_n193 Cl1-    0.761300    0.762900    0.383678    2.000000 Uiso  1.0000
 Li3_A1_n193 Li+    0.500000    0.500000    0.384000    2.000000 Uiso  0.2700
 Sc1_A1_n194 Sc3+    0.000000    0.000000    0.386000    2.000000 Uiso  1.0000
 Cl1_A1_n194 Cl1-    0.242100    0.768700    0.386000    2.000000 Uiso  1.0000
 Cl2_A1_n194 Cl1-    0.757900    0.231300    0.386000    2.000000 Uiso  1.0000
 Cl3_A1_n194 Cl1-    0.238700    0.237100    0.386322    2.000000 Uiso  1.0000
 Cl4_A1_n194 Cl1-    0.761300    0.762900    0.386322    2.000000 Uiso  1.0000
 Cl5_A1_n194 Cl1-    0.238700    0.237100    0.385678    2.000000 Uiso  1.0000
 Cl6_A1_n194 Cl1-    0.761300    0.762900    0.385678    2.000000 Uiso  1.0000
 Li3_A1_n194 Li+    0.500000    0.500000    0.386000    2.000000 Uiso  0.2700
 Sc1_A1_n195 Sc3+    0.000000    0.000000    0.388000    2.000000 Uiso  1.0000
 Cl1_A1_n195 Cl1-    0.242100    0.768700    0.388000    2.000000 Uiso  1.0000
 Cl2_A1_n195 Cl1-    0.757900    0.231300    0.388000    2.000000 Uiso  1.0000
 Cl3_A1_n195 Cl1-    0.238700    0.237100    0.388322    2.000000 Uiso  1.0000
 Cl4_A1_n195 Cl1-    0.761300    0.762900    0.388322    2.000000 Uiso  1.0000
 Cl5_A1_n195 Cl1-    0.238700    0.237100    0.387678    2.000000 Uiso  1.0000
 Cl6_A1_n195 Cl1-    0.761300    0.762900    0.387678    2.000000 Uiso  1.0000
 Li3_A1_n195 Li+    0.500000    0.500000    0.388000    2.000000 Uiso  0.2700
 Sc1_A1_n196 Sc3+    0.000000    0.000000    0.390000    2.000000 Uiso  1.0000
 Cl1_A1_n196 Cl1-    0.242100    0.768700    0.390000    2.000000 Uiso  1.0000
 Cl2_A1_n196 Cl1-    0.757900    0.231300    0.390000    2.000000 Uiso  1.0000
 Cl3_A1_n196 Cl1-    0.238700    0.237100    0.390322    2.000000 Uiso  1.0000
 Cl4_A1_n196 Cl1-    0.761300    0.762900    0.390322    2.000000 Uiso  1.0000
 Cl5_A1_n196 Cl1-    0.238700    0.237100    0.389678    2.000000 Uiso  1.0000
 Cl6_A1_n196 Cl1-    0.761300    0.762900    0.389678    2.000000 Uiso  1.0000
 Li3_A1_n196 Li+    0.500000    0.500000    0.390000    2.000000 Uiso  0.2700
 Sc1_A1_n197 Sc3+    0.000000    0.000000    0.392000    2.000000 Uiso  1.0000
 Cl1_A1_n197 Cl1-    0.242100    0.768700    0.392000    2.000000 Uiso  1.0000
 Cl2_A1_n197 Cl1-    0.757900    0.231300    0.392000    2.000000 Uiso  1.0000
 Cl3_A1_n197 Cl1-    0.238700    0.237100    0.392322    2.000000 Uiso  1.0000
 Cl4_A1_n197 Cl1-    0.761300    0.762900    0.392322    2.000000 Uiso  1.0000
 Cl5_A1_n197 Cl1-    0.238700    0.237100    0.391678    2.000000 Uiso  1.0000
 Cl6_A1_n197 Cl1-    0.761300    0.762900    0.391678    2.000000 Uiso  1.0000
 Li3_A1_n197 Li+    0.500000    0.500000    0.392000    2.000000 Uiso  0.2700
 Sc1_A1_n198 Sc3+    0.000000    0.000000    0.394000    2.000000 Uiso  1.0000
 Cl1_A1_n198 Cl1-    0.242100    0.768700    0.394000    2.000000 Uiso  1.0000
 Cl2_A1_n198 Cl1-    0.757900    0.231300    0.394000    2.000000 Uiso  1.0000
 Cl3_A1_n198 Cl1-    0.238700    0.237100    0.394322    2.000000 Uiso  1.0000
 Cl4_A1_n198 Cl1-    0.761300    0.762900    0.394322    2.000000 Uiso  1.0000
 Cl5_A1_n198 Cl1-    0.238700    0.237100    0.393678    2.000000 Uiso  1.0000
 Cl6_A1_n198 Cl1-    0.761300    0.762900    0.393678    2.000000 Uiso  1.0000
 Li3_A1_n198 Li+    0.500000    0.500000    0.394000    2.000000 Uiso  0.2700
 Sc1_A1_n199 Sc3+    0.000000    0.000000    0.396000    2.000000 Uiso  1.0000
 Cl1_A1_n199 Cl1-    0.242100    0.768700    0.396000    2.000000 Uiso  1.0000
 Cl2_A1_n199 Cl1-    0.757900    0.231300    0.396000    2.000000 Uiso  1.0000
 Cl3_A1_n199 Cl1-    0.238700    0.237100    0.396322    2.000000 Uiso  1.0000
 Cl4_A1_n199 Cl1-    0.761300    0.762900    0.396322    2.000000 Uiso  1.0000
 Cl5_A1_n199 Cl1-    0.238700    0.237100    0.395678    2.000000 Uiso  1.0000
 Cl6_A1_n199 Cl1-    0.761300    0.762900    0.395678    2.000000 Uiso  1.0000
 Li3_A1_n199 Li+    0.500000    0.500000    0.396000    2.000000 Uiso  0.2700
 Sc1_A1_n200 Sc3+    0.000000    0.000000    0.398000    2.000000 Uiso  1.0000
 Cl1_A1_n200 Cl1-    0.242100    0.768700    0.398000    2.000000 Uiso  1.0000
 Cl2_A1_n200 Cl1-    0.757900    0.231300    0.398000    2.000000 Uiso  1.0000
 Cl3_A1_n200 Cl1-    0.238700    0.237100    0.398322    2.000000 Uiso  1.0000
 Cl4_A1_n200 Cl1-    0.761300    0.762900    0.398322    2.000000 Uiso  1.0000
 Cl5_A1_n200 Cl1-    0.238700    0.237100    0.397678    2.000000 Uiso  1.0000
 Cl6_A1_n200 Cl1-    0.761300    0.762900    0.397678    2.000000 Uiso  1.0000
 Li3_A1_n200 Li+    0.500000    0.500000    0.398000    2.000000 Uiso  0.2700
 Sc1_A1_n201 Sc3+    0.000000    0.000000    0.400000    2.000000 Uiso  1.0000
 Cl1_A1_n201 Cl1-    0.242100    0.768700    0.400000    2.000000 Uiso  1.0000
 Cl2_A1_n201 Cl1-    0.757900    0.231300    0.400000    2.000000 Uiso  1.0000
 Cl3_A1_n201 Cl1-    0.238700    0.237100    0.400322    2.000000 Uiso  1.0000
 Cl4_A1_n201 Cl1-    0.761300    0.762900    0.400322    2.000000 Uiso  1.0000
 Cl5_A1_n201 Cl1-    0.238700    0.237100    0.399678    2.000000 Uiso  1.0000
 Cl6_A1_n201 Cl1-    0.761300    0.762900    0.399678    2.000000 Uiso  1.0000
 Li3_A1_n201 Li+    0.500000    0.500000    0.400000    2.000000 Uiso  0.2700
 Sc1_A1_n202 Sc3+    0.000000    0.000000    0.402000    2.000000 Uiso  1.0000
 Cl1_A1_n202 Cl1-    0.242100    0.768700    0.402000    2.000000 Uiso  1.0000
 Cl2_A1_n202 Cl1-    0.757900    0.231300    0.402000    2.000000 Uiso  1.0000
 Cl3_A1_n202 Cl1-    0.238700    0.237100    0.402322    2.000000 Uiso  1.0000
 Cl4_A1_n202 Cl1-    0.761300    0.762900    0.402322    2.000000 Uiso  1.0000
 Cl5_A1_n202 Cl1-    0.238700    0.237100    0.401678    2.000000 Uiso  1.0000
 Cl6_A1_n202 Cl1-    0.761300    0.762900    0.401678    2.000000 Uiso  1.0000
 Li3_A1_n202 Li+    0.500000    0.500000    0.402000    2.000000 Uiso  0.2700
 Sc1_A1_n203 Sc3+    0.000000    0.000000    0.404000    2.000000 Uiso  1.0000
 Cl1_A1_n203 Cl1-    0.242100    0.768700    0.404000    2.000000 Uiso  1.0000
 Cl2_A1_n203 Cl1-    0.757900    0.231300    0.404000    2.000000 Uiso  1.0000
 Cl3_A1_n203 Cl1-    0.238700    0.237100    0.404322    2.000000 Uiso  1.0000
 Cl4_A1_n203 Cl1-    0.761300    0.762900    0.404322    2.000000 Uiso  1.0000
 Cl5_A1_n203 Cl1-    0.238700    0.237100    0.403678    2.000000 Uiso  1.0000
 Cl6_A1_n203 Cl1-    0.761300    0.762900    0.403678    2.000000 Uiso  1.0000
 Li3_A1_n203 Li+    0.500000    0.500000    0.404000    2.000000 Uiso  0.2700
 Sc1_A1_n204 Sc3+    0.000000    0.000000    0.406000    2.000000 Uiso  1.0000
 Cl1_A1_n204 Cl1-    0.242100    0.768700    0.406000    2.000000 Uiso  1.0000
 Cl2_A1_n204 Cl1-    0.757900    0.231300    0.406000    2.000000 Uiso  1.0000
 Cl3_A1_n204 Cl1-    0.238700    0.237100    0.406322    2.000000 Uiso  1.0000
 Cl4_A1_n204 Cl1-    0.761300    0.762900    0.406322    2.000000 Uiso  1.0000
 Cl5_A1_n204 Cl1-    0.238700    0.237100    0.405678    2.000000 Uiso  1.0000
 Cl6_A1_n204 Cl1-    0.761300    0.762900    0.405678    2.000000 Uiso  1.0000
 Li3_A1_n204 Li+    0.500000    0.500000    0.406000    2.000000 Uiso  0.2700
 Sc1_A1_n205 Sc3+    0.000000    0.000000    0.408000    2.000000 Uiso  1.0000
 Cl1_A1_n205 Cl1-    0.242100    0.768700    0.408000    2.000000 Uiso  1.0000
 Cl2_A1_n205 Cl1-    0.757900    0.231300    0.408000    2.000000 Uiso  1.0000
 Cl3_A1_n205 Cl1-    0.238700    0.237100    0.408322    2.000000 Uiso  1.0000
 Cl4_A1_n205 Cl1-    0.761300    0.762900    0.408322    2.000000 Uiso  1.0000
 Cl5_A1_n205 Cl1-    0.238700    0.237100    0.407678    2.000000 Uiso  1.0000
 Cl6_A1_n205 Cl1-    0.761300    0.762900    0.407678    2.000000 Uiso  1.0000
 Li3_A1_n205 Li+    0.500000    0.500000    0.408000    2.000000 Uiso  0.2700
 Sc1_A1_n206 Sc3+    0.000000    0.000000    0.410000    2.000000 Uiso  1.0000
 Cl1_A1_n206 Cl1-    0.242100    0.768700    0.410000    2.000000 Uiso  1.0000
 Cl2_A1_n206 Cl1-    0.757900    0.231300    0.410000    2.000000 Uiso  1.0000
 Cl3_A1_n206 Cl1-    0.238700    0.237100    0.410322    2.000000 Uiso  1.0000
 Cl4_A1_n206 Cl1-    0.761300    0.762900    0.410322    2.000000 Uiso  1.0000
 Cl5_A1_n206 Cl1-    0.238700    0.237100    0.409678    2.000000 Uiso  1.0000
 Cl6_A1_n206 Cl1-    0.761300    0.762900    0.409678    2.000000 Uiso  1.0000
 Li3_A1_n206 Li+    0.500000    0.500000    0.410000    2.000000 Uiso  0.2700
 Sc1_A1_n207 Sc3+    0.000000    0.000000    0.412000    2.000000 Uiso  1.0000
 Cl1_A1_n207 Cl1-    0.242100    0.768700    0.412000    2.000000 Uiso  1.0000
 Cl2_A1_n207 Cl1-    0.757900    0.231300    0.412000    2.000000 Uiso  1.0000
 Cl3_A1_n207 Cl1-    0.238700    0.237100    0.412322    2.000000 Uiso  1.0000
 Cl4_A1_n207 Cl1-    0.761300    0.762900    0.412322    2.000000 Uiso  1.0000
 Cl5_A1_n207 Cl1-    0.238700    0.237100    0.411678    2.000000 Uiso  1.0000
 Cl6_A1_n207 Cl1-    0.761300    0.762900    0.411678    2.000000 Uiso  1.0000
 Li3_A1_n207 Li+    0.500000    0.500000    0.412000    2.000000 Uiso  0.2700
 Sc1_A1_n208 Sc3+    0.000000    0.000000    0.414000    2.000000 Uiso  1.0000
 Cl1_A1_n208 Cl1-    0.242100    0.768700    0.414000    2.000000 Uiso  1.0000
 Cl2_A1_n208 Cl1-    0.757900    0.231300    0.414000    2.000000 Uiso  1.0000
 Cl3_A1_n208 Cl1-    0.238700    0.237100    0.414322    2.000000 Uiso  1.0000
 Cl4_A1_n208 Cl1-    0.761300    0.762900    0.414322    2.000000 Uiso  1.0000
 Cl5_A1_n208 Cl1-    0.238700    0.237100    0.413678    2.000000 Uiso  1.0000
 Cl6_A1_n208 Cl1-    0.761300    0.762900    0.413678    2.000000 Uiso  1.0000
 Li3_A1_n208 Li+    0.500000    0.500000    0.414000    2.000000 Uiso  0.2700
 Sc1_A1_n209 Sc3+    0.000000    0.000000    0.416000    2.000000 Uiso  1.0000
 Cl1_A1_n209 Cl1-    0.242100    0.768700    0.416000    2.000000 Uiso  1.0000
 Cl2_A1_n209 Cl1-    0.757900    0.231300    0.416000    2.000000 Uiso  1.0000
 Cl3_A1_n209 Cl1-    0.238700    0.237100    0.416322    2.000000 Uiso  1.0000
 Cl4_A1_n209 Cl1-    0.761300    0.762900    0.416322    2.000000 Uiso  1.0000
 Cl5_A1_n209 Cl1-    0.238700    0.237100    0.415678    2.000000 Uiso  1.0000
 Cl6_A1_n209 Cl1-    0.761300    0.762900    0.415678    2.000000 Uiso  1.0000
 Li3_A1_n209 Li+    0.500000    0.500000    0.416000    2.000000 Uiso  0.2700
 Sc1_A1_n210 Sc3+    0.000000    0.000000    0.418000    2.000000 Uiso  1.0000
 Cl1_A1_n210 Cl1-    0.242100    0.768700    0.418000    2.000000 Uiso  1.0000
 Cl2_A1_n210 Cl1-    0.757900    0.231300    0.418000    2.000000 Uiso  1.0000
 Cl3_A1_n210 Cl1-    0.238700    0.237100    0.418322    2.000000 Uiso  1.0000
 Cl4_A1_n210 Cl1-    0.761300    0.762900    0.418322    2.000000 Uiso  1.0000
 Cl5_A1_n210 Cl1-    0.238700    0.237100    0.417678    2.000000 Uiso  1.0000
 Cl6_A1_n210 Cl1-    0.761300    0.762900    0.417678    2.000000 Uiso  1.0000
 Li3_A1_n210 Li+    0.500000    0.500000    0.418000    2.000000 Uiso  0.2700
 Sc1_A1_n211 Sc3+    0.000000    0.000000    0.420000    2.000000 Uiso  1.0000
 Cl1_A1_n211 Cl1-    0.242100    0.768700    0.420000    2.000000 Uiso  1.0000
 Cl2_A1_n211 Cl1-    0.757900    0.231300    0.420000    2.000000 Uiso  1.0000
 Cl3_A1_n211 Cl1-    0.238700    0.237100    0.420322    2.000000 Uiso  1.0000
 Cl4_A1_n211 Cl1-    0.761300    0.762900    0.420322    2.000000 Uiso  1.0000
 Cl5_A1_n211 Cl1-    0.238700    0.237100    0.419678    2.000000 Uiso  1.0000
 Cl6_A1_n211 Cl1-    0.761300    0.762900    0.419678    2.000000 Uiso  1.0000
 Li3_A1_n211 Li+    0.500000    0.500000    0.420000    2.000000 Uiso  0.2700
 Sc1_A1_n212 Sc3+    0.000000    0.000000    0.422000    2.000000 Uiso  1.0000
 Cl1_A1_n212 Cl1-    0.242100    0.768700    0.422000    2.000000 Uiso  1.0000
 Cl2_A1_n212 Cl1-    0.757900    0.231300    0.422000    2.000000 Uiso  1.0000
 Cl3_A1_n212 Cl1-    0.238700    0.237100    0.422322    2.000000 Uiso  1.0000
 Cl4_A1_n212 Cl1-    0.761300    0.762900    0.422322    2.000000 Uiso  1.0000
 Cl5_A1_n212 Cl1-    0.238700    0.237100    0.421678    2.000000 Uiso  1.0000
 Cl6_A1_n212 Cl1-    0.761300    0.762900    0.421678    2.000000 Uiso  1.0000
 Li3_A1_n212 Li+    0.500000    0.500000    0.422000    2.000000 Uiso  0.2700
 Sc1_A1_n213 Sc3+    0.000000    0.000000    0.424000    2.000000 Uiso  1.0000
 Cl1_A1_n213 Cl1-    0.242100    0.768700    0.424000    2.000000 Uiso  1.0000
 Cl2_A1_n213 Cl1-    0.757900    0.231300    0.424000    2.000000 Uiso  1.0000
 Cl3_A1_n213 Cl1-    0.238700    0.237100    0.424322    2.000000 Uiso  1.0000
 Cl4_A1_n213 Cl1-    0.761300    0.762900    0.424322    2.000000 Uiso  1.0000
 Cl5_A1_n213 Cl1-    0.238700    0.237100    0.423678    2.000000 Uiso  1.0000
 Cl6_A1_n213 Cl1-    0.761300    0.762900    0.423678    2.000000 Uiso  1.0000
 Li3_A1_n213 Li+    0.500000    0.500000    0.424000    2.000000 Uiso  0.2700
 Sc1_A1_n214 Sc3+    0.000000    0.000000    0.426000    2.000000 Uiso  1.0000
 Cl1_A1_n214 Cl1-    0.242100    0.768700    0.426000    2.000000 Uiso  1.0000
 Cl2_A1_n214 Cl1-    0.757900    0.231300    0.426000    2.000000 Uiso  1.0000
 Cl3_A1_n214 Cl1-    0.238700    0.237100    0.426322    2.000000 Uiso  1.0000
 Cl4_A1_n214 Cl1-    0.761300    0.762900    0.426322    2.000000 Uiso  1.0000
 Cl5_A1_n214 Cl1-    0.238700    0.237100    0.425678    2.000000 Uiso  1.0000
 Cl6_A1_n214 Cl1-    0.761300    0.762900    0.425678    2.000000 Uiso  1.0000
 Li3_A1_n214 Li+    0.500000    0.500000    0.426000    2.000000 Uiso  0.2700
 Sc1_A1_n215 Sc3+    0.000000    0.000000    0.428000    2.000000 Uiso  1.0000
 Cl1_A1_n215 Cl1-    0.242100    0.768700    0.428000    2.000000 Uiso  1.0000
 Cl2_A1_n215 Cl1-    0.757900    0.231300    0.428000    2.000000 Uiso  1.0000
 Cl3_A1_n215 Cl1-    0.238700    0.237100    0.428322    2.000000 Uiso  1.0000
 Cl4_A1_n215 Cl1-    0.761300    0.762900    0.428322    2.000000 Uiso  1.0000
 Cl5_A1_n215 Cl1-    0.238700    0.237100    0.427678    2.000000 Uiso  1.0000
 Cl6_A1_n215 Cl1-    0.761300    0.762900    0.427678    2.000000 Uiso  1.0000
 Li3_A1_n215 Li+    0.500000    0.500000    0.428000    2.000000 Uiso  0.2700
 Sc1_A1_n216 Sc3+    0.000000    0.000000    0.430000    2.000000 Uiso  1.0000
 Cl1_A1_n216 Cl1-    0.242100    0.768700    0.430000    2.000000 Uiso  1.0000
 Cl2_A1_n216 Cl1-    0.757900    0.231300    0.430000    2.000000 Uiso  1.0000
 Cl3_A1_n216 Cl1-    0.238700    0.237100    0.430322    2.000000 Uiso  1.0000
 Cl4_A1_n216 Cl1-    0.761300    0.762900    0.430322    2.000000 Uiso  1.0000
 Cl5_A1_n216 Cl1-    0.238700    0.237100    0.429678    2.000000 Uiso  1.0000
 Cl6_A1_n216 Cl1-    0.761300    0.762900    0.429678    2.000000 Uiso  1.0000
 Li3_A1_n216 Li+    0.500000    0.500000    0.430000    2.000000 Uiso  0.2700
 Sc1_A1_n217 Sc3+    0.000000    0.000000    0.432000    2.000000 Uiso  1.0000
 Cl1_A1_n217 Cl1-    0.242100    0.768700    0.432000    2.000000 Uiso  1.0000
 Cl2_A1_n217 Cl1-    0.757900    0.231300    0.432000    2.000000 Uiso  1.0000
 Cl3_A1_n217 Cl1-    0.238700    0.237100    0.432322    2.000000 Uiso  1.0000
 Cl4_A1_n217 Cl1-    0.761300    0.762900    0.432322    2.000000 Uiso  1.0000
 Cl5_A1_n217 Cl1-    0.238700    0.237100    0.431678    2.000000 Uiso  1.0000
 Cl6_A1_n217 Cl1-    0.761300    0.762900    0.431678    2.000000 Uiso  1.0000
 Li3_A1_n217 Li+    0.500000    0.500000    0.432000    2.000000 Uiso  0.2700
 Sc1_A1_n218 Sc3+    0.000000    0.000000    0.434000    2.000000 Uiso  1.0000
 Cl1_A1_n218 Cl1-    0.242100    0.768700    0.434000    2.000000 Uiso  1.0000
 Cl2_A1_n218 Cl1-    0.757900    0.231300    0.434000    2.000000 Uiso  1.0000
 Cl3_A1_n218 Cl1-    0.238700    0.237100    0.434322    2.000000 Uiso  1.0000
 Cl4_A1_n218 Cl1-    0.761300    0.762900    0.434322    2.000000 Uiso  1.0000
 Cl5_A1_n218 Cl1-    0.238700    0.237100    0.433678    2.000000 Uiso  1.0000
 Cl6_A1_n218 Cl1-    0.761300    0.762900    0.433678    2.000000 Uiso  1.0000
 Li3_A1_n218 Li+    0.500000    0.500000    0.434000    2.000000 Uiso  0.2700
 Sc1_A1_n219 Sc3+    0.000000    0.000000    0.436000    2.000000 Uiso  1.0000
 Cl1_A1_n219 Cl1-    0.242100    0.768700    0.436000    2.000000 Uiso  1.0000
 Cl2_A1_n219 Cl1-    0.757900    0.231300    0.436000    2.000000 Uiso  1.0000
 Cl3_A1_n219 Cl1-    0.238700    0.237100    0.436322    2.000000 Uiso  1.0000
 Cl4_A1_n219 Cl1-    0.761300    0.762900    0.436322    2.000000 Uiso  1.0000
 Cl5_A1_n219 Cl1-    0.238700    0.237100    0.435678    2.000000 Uiso  1.0000
 Cl6_A1_n219 Cl1-    0.761300    0.762900    0.435678    2.000000 Uiso  1.0000
 Li3_A1_n219 Li+    0.500000    0.500000    0.436000    2.000000 Uiso  0.2700
 Sc1_A1_n220 Sc3+    0.000000    0.000000    0.438000    2.000000 Uiso  1.0000
 Cl1_A1_n220 Cl1-    0.242100    0.768700    0.438000    2.000000 Uiso  1.0000
 Cl2_A1_n220 Cl1-    0.757900    0.231300    0.438000    2.000000 Uiso  1.0000
 Cl3_A1_n220 Cl1-    0.238700    0.237100    0.438322    2.000000 Uiso  1.0000
 Cl4_A1_n220 Cl1-    0.761300    0.762900    0.438322    2.000000 Uiso  1.0000
 Cl5_A1_n220 Cl1-    0.238700    0.237100    0.437678    2.000000 Uiso  1.0000
 Cl6_A1_n220 Cl1-    0.761300    0.762900    0.437678    2.000000 Uiso  1.0000
 Li3_A1_n220 Li+    0.500000    0.500000    0.438000    2.000000 Uiso  0.2700
 Sc1_A1_n221 Sc3+    0.000000    0.000000    0.440000    2.000000 Uiso  1.0000
 Cl1_A1_n221 Cl1-    0.242100    0.768700    0.440000    2.000000 Uiso  1.0000
 Cl2_A1_n221 Cl1-    0.757900    0.231300    0.440000    2.000000 Uiso  1.0000
 Cl3_A1_n221 Cl1-    0.238700    0.237100    0.440322    2.000000 Uiso  1.0000
 Cl4_A1_n221 Cl1-    0.761300    0.762900    0.440322    2.000000 Uiso  1.0000
 Cl5_A1_n221 Cl1-    0.238700    0.237100    0.439678    2.000000 Uiso  1.0000
 Cl6_A1_n221 Cl1-    0.761300    0.762900    0.439678    2.000000 Uiso  1.0000
 Li3_A1_n221 Li+    0.500000    0.500000    0.440000    2.000000 Uiso  0.2700
 Sc1_A1_n222 Sc3+    0.000000    0.000000    0.442000    2.000000 Uiso  1.0000
 Cl1_A1_n222 Cl1-    0.242100    0.768700    0.442000    2.000000 Uiso  1.0000
 Cl2_A1_n222 Cl1-    0.757900    0.231300    0.442000    2.000000 Uiso  1.0000
 Cl3_A1_n222 Cl1-    0.238700    0.237100    0.442322    2.000000 Uiso  1.0000
 Cl4_A1_n222 Cl1-    0.761300    0.762900    0.442322    2.000000 Uiso  1.0000
 Cl5_A1_n222 Cl1-    0.238700    0.237100    0.441678    2.000000 Uiso  1.0000
 Cl6_A1_n222 Cl1-    0.761300    0.762900    0.441678    2.000000 Uiso  1.0000
 Li3_A1_n222 Li+    0.500000    0.500000    0.442000    2.000000 Uiso  0.2700
 Sc1_A1_n223 Sc3+    0.000000    0.000000    0.444000    2.000000 Uiso  1.0000
 Cl1_A1_n223 Cl1-    0.242100    0.768700    0.444000    2.000000 Uiso  1.0000
 Cl2_A1_n223 Cl1-    0.757900    0.231300    0.444000    2.000000 Uiso  1.0000
 Cl3_A1_n223 Cl1-    0.238700    0.237100    0.444322    2.000000 Uiso  1.0000
 Cl4_A1_n223 Cl1-    0.761300    0.762900    0.444322    2.000000 Uiso  1.0000
 Cl5_A1_n223 Cl1-    0.238700    0.237100    0.443678    2.000000 Uiso  1.0000
 Cl6_A1_n223 Cl1-    0.761300    0.762900    0.443678    2.000000 Uiso  1.0000
 Li3_A1_n223 Li+    0.500000    0.500000    0.444000    2.000000 Uiso  0.2700
 Sc1_A1_n224 Sc3+    0.000000    0.000000    0.446000    2.000000 Uiso  1.0000
 Cl1_A1_n224 Cl1-    0.242100    0.768700    0.446000    2.000000 Uiso  1.0000
 Cl2_A1_n224 Cl1-    0.757900    0.231300    0.446000    2.000000 Uiso  1.0000
 Cl3_A1_n224 Cl1-    0.238700    0.237100    0.446322    2.000000 Uiso  1.0000
 Cl4_A1_n224 Cl1-    0.761300    0.762900    0.446322    2.000000 Uiso  1.0000
 Cl5_A1_n224 Cl1-    0.238700    0.237100    0.445678    2.000000 Uiso  1.0000
 Cl6_A1_n224 Cl1-    0.761300    0.762900    0.445678    2.000000 Uiso  1.0000
 Li3_A1_n224 Li+    0.500000    0.500000    0.446000    2.000000 Uiso  0.2700
 Sc1_A1_n225 Sc3+    0.000000    0.000000    0.448000    2.000000 Uiso  1.0000
 Cl1_A1_n225 Cl1-    0.242100    0.768700    0.448000    2.000000 Uiso  1.0000
 Cl2_A1_n225 Cl1-    0.757900    0.231300    0.448000    2.000000 Uiso  1.0000
 Cl3_A1_n225 Cl1-    0.238700    0.237100    0.448322    2.000000 Uiso  1.0000
 Cl4_A1_n225 Cl1-    0.761300    0.762900    0.448322    2.000000 Uiso  1.0000
 Cl5_A1_n225 Cl1-    0.238700    0.237100    0.447678    2.000000 Uiso  1.0000
 Cl6_A1_n225 Cl1-    0.761300    0.762900    0.447678    2.000000 Uiso  1.0000
 Li3_A1_n225 Li+    0.500000    0.500000    0.448000    2.000000 Uiso  0.2700
 Sc1_A1_n226 Sc3+    0.000000    0.000000    0.450000    2.000000 Uiso  1.0000
 Cl1_A1_n226 Cl1-    0.242100    0.768700    0.450000    2.000000 Uiso  1.0000
 Cl2_A1_n226 Cl1-    0.757900    0.231300    0.450000    2.000000 Uiso  1.0000
 Cl3_A1_n226 Cl1-    0.238700    0.237100    0.450322    2.000000 Uiso  1.0000
 Cl4_A1_n226 Cl1-    0.761300    0.762900    0.450322    2.000000 Uiso  1.0000
 Cl5_A1_n226 Cl1-    0.238700    0.237100    0.449678    2.000000 Uiso  1.0000
 Cl6_A1_n226 Cl1-    0.761300    0.762900    0.449678    2.000000 Uiso  1.0000
 Li3_A1_n226 Li+    0.500000    0.500000    0.450000    2.000000 Uiso  0.2700
 Sc1_A1_n227 Sc3+    0.000000    0.000000    0.452000    2.000000 Uiso  1.0000
 Cl1_A1_n227 Cl1-    0.242100    0.768700    0.452000    2.000000 Uiso  1.0000
 Cl2_A1_n227 Cl1-    0.757900    0.231300    0.452000    2.000000 Uiso  1.0000
 Cl3_A1_n227 Cl1-    0.238700    0.237100    0.452322    2.000000 Uiso  1.0000
 Cl4_A1_n227 Cl1-    0.761300    0.762900    0.452322    2.000000 Uiso  1.0000
 Cl5_A1_n227 Cl1-    0.238700    0.237100    0.451678    2.000000 Uiso  1.0000
 Cl6_A1_n227 Cl1-    0.761300    0.762900    0.451678    2.000000 Uiso  1.0000
 Li3_A1_n227 Li+    0.500000    0.500000    0.452000    2.000000 Uiso  0.2700
 Sc1_A1_n228 Sc3+    0.000000    0.000000    0.454000    2.000000 Uiso  1.0000
 Cl1_A1_n228 Cl1-    0.242100    0.768700    0.454000    2.000000 Uiso  1.0000
 Cl2_A1_n228 Cl1-    0.757900    0.231300    0.454000    2.000000 Uiso  1.0000
 Cl3_A1_n228 Cl1-    0.238700    0.237100    0.454322    2.000000 Uiso  1.0000
 Cl4_A1_n228 Cl1-    0.761300    0.762900    0.454322    2.000000 Uiso  1.0000
 Cl5_A1_n228 Cl1-    0.238700    0.237100    0.453678    2.000000 Uiso  1.0000
 Cl6_A1_n228 Cl1-    0.761300    0.762900    0.453678    2.000000 Uiso  1.0000
 Li3_A1_n228 Li+    0.500000    0.500000    0.454000    2.000000 Uiso  0.2700
 Sc1_A1_n229 Sc3+    0.000000    0.000000    0.456000    2.000000 Uiso  1.0000
 Cl1_A1_n229 Cl1-    0.242100    0.768700    0.456000    2.000000 Uiso  1.0000
 Cl2_A1_n229 Cl1-    0.757900    0.231300    0.456000    2.000000 Uiso  1.0000
 Cl3_A1_n229 Cl1-    0.238700    0.237100    0.456322    2.000000 Uiso  1.0000
 Cl4_A1_n229 Cl1-    0.761300    0.762900    0.456322    2.000000 Uiso  1.0000
 Cl5_A1_n229 Cl1-    0.238700    0.237100    0.455678    2.000000 Uiso  1.0000
 Cl6_A1_n229 Cl1-    0.761300    0.762900    0.455678    2.000000 Uiso  1.0000
 Li3_A1_n229 Li+    0.500000    0.500000    0.456000    2.000000 Uiso  0.2700
 Sc1_A1_n230 Sc3+    0.000000    0.000000    0.458000    2.000000 Uiso  1.0000
 Cl1_A1_n230 Cl1-    0.242100    0.768700    0.458000    2.000000 Uiso  1.0000
 Cl2_A1_n230 Cl1-    0.757900    0.231300    0.458000    2.000000 Uiso  1.0000
 Cl3_A1_n230 Cl1-    0.238700    0.237100    0.458322    2.000000 Uiso  1.0000
 Cl4_A1_n230 Cl1-    0.761300    0.762900    0.458322    2.000000 Uiso  1.0000
 Cl5_A1_n230 Cl1-    0.238700    0.237100    0.457678    2.000000 Uiso  1.0000
 Cl6_A1_n230 Cl1-    0.761300    0.762900    0.457678    2.000000 Uiso  1.0000
 Li3_A1_n230 Li+    0.500000    0.500000    0.458000    2.000000 Uiso  0.2700
 Sc1_A1_n231 Sc3+    0.000000    0.000000    0.460000    2.000000 Uiso  1.0000
 Cl1_A1_n231 Cl1-    0.242100    0.768700    0.460000    2.000000 Uiso  1.0000
 Cl2_A1_n231 Cl1-    0.757900    0.231300    0.460000    2.000000 Uiso  1.0000
 Cl3_A1_n231 Cl1-    0.238700    0.237100    0.460322    2.000000 Uiso  1.0000
 Cl4_A1_n231 Cl1-    0.761300    0.762900    0.460322    2.000000 Uiso  1.0000
 Cl5_A1_n231 Cl1-    0.238700    0.237100    0.459678    2.000000 Uiso  1.0000
 Cl6_A1_n231 Cl1-    0.761300    0.762900    0.459678    2.000000 Uiso  1.0000
 Li3_A1_n231 Li+    0.500000    0.500000    0.460000    2.000000 Uiso  0.2700
 Sc1_A1_n232 Sc3+    0.000000    0.000000    0.462000    2.000000 Uiso  1.0000
 Cl1_A1_n232 Cl1-    0.242100    0.768700    0.462000    2.000000 Uiso  1.0000
 Cl2_A1_n232 Cl1-    0.757900    0.231300    0.462000    2.000000 Uiso  1.0000
 Cl3_A1_n232 Cl1-    0.238700    0.237100    0.462322    2.000000 Uiso  1.0000
 Cl4_A1_n232 Cl1-    0.761300    0.762900    0.462322    2.000000 Uiso  1.0000
 Cl5_A1_n232 Cl1-    0.238700    0.237100    0.461678    2.000000 Uiso  1.0000
 Cl6_A1_n232 Cl1-    0.761300    0.762900    0.461678    2.000000 Uiso  1.0000
 Li3_A1_n232 Li+    0.500000    0.500000    0.462000    2.000000 Uiso  0.2700
 Sc1_A1_n233 Sc3+    0.000000    0.000000    0.464000    2.000000 Uiso  1.0000
 Cl1_A1_n233 Cl1-    0.242100    0.768700    0.464000    2.000000 Uiso  1.0000
 Cl2_A1_n233 Cl1-    0.757900    0.231300    0.464000    2.000000 Uiso  1.0000
 Cl3_A1_n233 Cl1-    0.238700    0.237100    0.464322    2.000000 Uiso  1.0000
 Cl4_A1_n233 Cl1-    0.761300    0.762900    0.464322    2.000000 Uiso  1.0000
 Cl5_A1_n233 Cl1-    0.238700    0.237100    0.463678    2.000000 Uiso  1.0000
 Cl6_A1_n233 Cl1-    0.761300    0.762900    0.463678    2.000000 Uiso  1.0000
 Li3_A1_n233 Li+    0.500000    0.500000    0.464000    2.000000 Uiso  0.2700
 Sc1_A1_n234 Sc3+    0.000000    0.000000    0.466000    2.000000 Uiso  1.0000
 Cl1_A1_n234 Cl1-    0.242100    0.768700    0.466000    2.000000 Uiso  1.0000
 Cl2_A1_n234 Cl1-    0.757900    0.231300    0.466000    2.000000 Uiso  1.0000
 Cl3_A1_n234 Cl1-    0.238700    0.237100    0.466322    2.000000 Uiso  1.0000
 Cl4_A1_n234 Cl1-    0.761300    0.762900    0.466322    2.000000 Uiso  1.0000
 Cl5_A1_n234 Cl1-    0.238700    0.237100    0.465678    2.000000 Uiso  1.0000
 Cl6_A1_n234 Cl1-    0.761300    0.762900    0.465678    2.000000 Uiso  1.0000
 Li3_A1_n234 Li+    0.500000    0.500000    0.466000    2.000000 Uiso  0.2700
 Sc1_A1_n235 Sc3+    0.000000    0.000000    0.468000    2.000000 Uiso  1.0000
 Cl1_A1_n235 Cl1-    0.242100    0.768700    0.468000    2.000000 Uiso  1.0000
 Cl2_A1_n235 Cl1-    0.757900    0.231300    0.468000    2.000000 Uiso  1.0000
 Cl3_A1_n235 Cl1-    0.238700    0.237100    0.468322    2.000000 Uiso  1.0000
 Cl4_A1_n235 Cl1-    0.761300    0.762900    0.468322    2.000000 Uiso  1.0000
 Cl5_A1_n235 Cl1-    0.238700    0.237100    0.467678    2.000000 Uiso  1.0000
 Cl6_A1_n235 Cl1-    0.761300    0.762900    0.467678    2.000000 Uiso  1.0000
 Li3_A1_n235 Li+    0.500000    0.500000    0.468000    2.000000 Uiso  0.2700
 Sc1_A1_n236 Sc3+    0.000000    0.000000    0.470000    2.000000 Uiso  1.0000
 Cl1_A1_n236 Cl1-    0.242100    0.768700    0.470000    2.000000 Uiso  1.0000
 Cl2_A1_n236 Cl1-    0.757900    0.231300    0.470000    2.000000 Uiso  1.0000
 Cl3_A1_n236 Cl1-    0.238700    0.237100    0.470322    2.000000 Uiso  1.0000
 Cl4_A1_n236 Cl1-    0.761300    0.762900    0.470322    2.000000 Uiso  1.0000
 Cl5_A1_n236 Cl1-    0.238700    0.237100    0.469678    2.000000 Uiso  1.0000
 Cl6_A1_n236 Cl1-    0.761300    0.762900    0.469678    2.000000 Uiso  1.0000
 Li3_A1_n236 Li+    0.500000    0.500000    0.470000    2.000000 Uiso  0.2700
 Sc1_A1_n237 Sc3+    0.000000    0.000000    0.472000    2.000000 Uiso  1.0000
 Cl1_A1_n237 Cl1-    0.242100    0.768700    0.472000    2.000000 Uiso  1.0000
 Cl2_A1_n237 Cl1-    0.757900    0.231300    0.472000    2.000000 Uiso  1.0000
 Cl3_A1_n237 Cl1-    0.238700    0.237100    0.472322    2.000000 Uiso  1.0000
 Cl4_A1_n237 Cl1-    0.761300    0.762900    0.472322    2.000000 Uiso  1.0000
 Cl5_A1_n237 Cl1-    0.238700    0.237100    0.471678    2.000000 Uiso  1.0000
 Cl6_A1_n237 Cl1-    0.761300    0.762900    0.471678    2.000000 Uiso  1.0000
 Li3_A1_n237 Li+    0.500000    0.500000    0.472000    2.000000 Uiso  0.2700
 Sc1_A1_n238 Sc3+    0.000000    0.000000    0.474000    2.000000 Uiso  1.0000
 Cl1_A1_n238 Cl1-    0.242100    0.768700    0.474000    2.000000 Uiso  1.0000
 Cl2_A1_n238 Cl1-    0.757900    0.231300    0.474000    2.000000 Uiso  1.0000
 Cl3_A1_n238 Cl1-    0.238700    0.237100    0.474322    2.000000 Uiso  1.0000
 Cl4_A1_n238 Cl1-    0.761300    0.762900    0.474322    2.000000 Uiso  1.0000
 Cl5_A1_n238 Cl1-    0.238700    0.237100    0.473678    2.000000 Uiso  1.0000
 Cl6_A1_n238 Cl1-    0.761300    0.762900    0.473678    2.000000 Uiso  1.0000
 Li3_A1_n238 Li+    0.500000    0.500000    0.474000    2.000000 Uiso  0.2700
 Sc1_A1_n239 Sc3+    0.000000    0.000000    0.476000    2.000000 Uiso  1.0000
 Cl1_A1_n239 Cl1-    0.242100    0.768700    0.476000    2.000000 Uiso  1.0000
 Cl2_A1_n239 Cl1-    0.757900    0.231300    0.476000    2.000000 Uiso  1.0000
 Cl3_A1_n239 Cl1-    0.238700    0.237100    0.476322    2.000000 Uiso  1.0000
 Cl4_A1_n239 Cl1-    0.761300    0.762900    0.476322    2.000000 Uiso  1.0000
 Cl5_A1_n239 Cl1-    0.238700    0.237100    0.475678    2.000000 Uiso  1.0000
 Cl6_A1_n239 Cl1-    0.761300    0.762900    0.475678    2.000000 Uiso  1.0000
 Li3_A1_n239 Li+    0.500000    0.500000    0.476000    2.000000 Uiso  0.2700
 Sc1_A1_n240 Sc3+    0.000000    0.000000    0.478000    2.000000 Uiso  1.0000
 Cl1_A1_n240 Cl1-    0.242100    0.768700    0.478000    2.000000 Uiso  1.0000
 Cl2_A1_n240 Cl1-    0.757900    0.231300    0.478000    2.000000 Uiso  1.0000
 Cl3_A1_n240 Cl1-    0.238700    0.237100    0.478322    2.000000 Uiso  1.0000
 Cl4_A1_n240 Cl1-    0.761300    0.762900    0.478322    2.000000 Uiso  1.0000
 Cl5_A1_n240 Cl1-    0.238700    0.237100    0.477678    2.000000 Uiso  1.0000
 Cl6_A1_n240 Cl1-    0.761300    0.762900    0.477678    2.000000 Uiso  1.0000
 Li3_A1_n240 Li+    0.500000    0.500000    0.478000    2.000000 Uiso  0.2700
 Sc1_A1_n241 Sc3+    0.000000    0.000000    0.480000    2.000000 Uiso  1.0000
 Cl1_A1_n241 Cl1-    0.242100    0.768700    0.480000    2.000000 Uiso  1.0000
 Cl2_A1_n241 Cl1-    0.757900    0.231300    0.480000    2.000000 Uiso  1.0000
 Cl3_A1_n241 Cl1-    0.238700    0.237100    0.480322    2.000000 Uiso  1.0000
 Cl4_A1_n241 Cl1-    0.761300    0.762900    0.480322    2.000000 Uiso  1.0000
 Cl5_A1_n241 Cl1-    0.238700    0.237100    0.479678    2.000000 Uiso  1.0000
 Cl6_A1_n241 Cl1-    0.761300    0.762900    0.479678    2.000000 Uiso  1.0000
 Li3_A1_n241 Li+    0.500000    0.500000    0.480000    2.000000 Uiso  0.2700
 Sc1_A1_n242 Sc3+    0.000000    0.000000    0.482000    2.000000 Uiso  1.0000
 Cl1_A1_n242 Cl1-    0.242100    0.768700    0.482000    2.000000 Uiso  1.0000
 Cl2_A1_n242 Cl1-    0.757900    0.231300    0.482000    2.000000 Uiso  1.0000
 Cl3_A1_n242 Cl1-    0.238700    0.237100    0.482322    2.000000 Uiso  1.0000
 Cl4_A1_n242 Cl1-    0.761300    0.762900    0.482322    2.000000 Uiso  1.0000
 Cl5_A1_n242 Cl1-    0.238700    0.237100    0.481678    2.000000 Uiso  1.0000
 Cl6_A1_n242 Cl1-    0.761300    0.762900    0.481678    2.000000 Uiso  1.0000
 Li3_A1_n242 Li+    0.500000    0.500000    0.482000    2.000000 Uiso  0.2700
 Sc1_A1_n243 Sc3+    0.000000    0.000000    0.484000    2.000000 Uiso  1.0000
 Cl1_A1_n243 Cl1-    0.242100    0.768700    0.484000    2.000000 Uiso  1.0000
 Cl2_A1_n243 Cl1-    0.757900    0.231300    0.484000    2.000000 Uiso  1.0000
 Cl3_A1_n243 Cl1-    0.238700    0.237100    0.484322    2.000000 Uiso  1.0000
 Cl4_A1_n243 Cl1-    0.761300    0.762900    0.484322    2.000000 Uiso  1.0000
 Cl5_A1_n243 Cl1-    0.238700    0.237100    0.483678    2.000000 Uiso  1.0000
 Cl6_A1_n243 Cl1-    0.761300    0.762900    0.483678    2.000000 Uiso  1.0000
 Li3_A1_n243 Li+    0.500000    0.500000    0.484000    2.000000 Uiso  0.2700
 Sc1_A1_n244 Sc3+    0.000000    0.000000    0.486000    2.000000 Uiso  1.0000
 Cl1_A1_n244 Cl1-    0.242100    0.768700    0.486000    2.000000 Uiso  1.0000
 Cl2_A1_n244 Cl1-    0.757900    0.231300    0.486000    2.000000 Uiso  1.0000
 Cl3_A1_n244 Cl1-    0.238700    0.237100    0.486322    2.000000 Uiso  1.0000
 Cl4_A1_n244 Cl1-    0.761300    0.762900    0.486322    2.000000 Uiso  1.0000
 Cl5_A1_n244 Cl1-    0.238700    0.237100    0.485678    2.000000 Uiso  1.0000
 Cl6_A1_n244 Cl1-    0.761300    0.762900    0.485678    2.000000 Uiso  1.0000
 Li3_A1_n244 Li+    0.500000    0.500000    0.486000    2.000000 Uiso  0.2700
 Sc1_A1_n245 Sc3+    0.000000    0.000000    0.488000    2.000000 Uiso  1.0000
 Cl1_A1_n245 Cl1-    0.242100    0.768700    0.488000    2.000000 Uiso  1.0000
 Cl2_A1_n245 Cl1-    0.757900    0.231300    0.488000    2.000000 Uiso  1.0000
 Cl3_A1_n245 Cl1-    0.238700    0.237100    0.488322    2.000000 Uiso  1.0000
 Cl4_A1_n245 Cl1-    0.761300    0.762900    0.488322    2.000000 Uiso  1.0000
 Cl5_A1_n245 Cl1-    0.238700    0.237100    0.487678    2.000000 Uiso  1.0000
 Cl6_A1_n245 Cl1-    0.761300    0.762900    0.487678    2.000000 Uiso  1.0000
 Li3_A1_n245 Li+    0.500000    0.500000    0.488000    2.000000 Uiso  0.2700
 Sc1_A1_n246 Sc3+    0.000000    0.000000    0.490000    2.000000 Uiso  1.0000
 Cl1_A1_n246 Cl1-    0.242100    0.768700    0.490000    2.000000 Uiso  1.0000
 Cl2_A1_n246 Cl1-    0.757900    0.231300    0.490000    2.000000 Uiso  1.0000
 Cl3_A1_n246 Cl1-    0.238700    0.237100    0.490322    2.000000 Uiso  1.0000
 Cl4_A1_n246 Cl1-    0.761300    0.762900    0.490322    2.000000 Uiso  1.0000
 Cl5_A1_n246 Cl1-    0.238700    0.237100    0.489678    2.000000 Uiso  1.0000
 Cl6_A1_n246 Cl1-    0.761300    0.762900    0.489678    2.000000 Uiso  1.0000
 Li3_A1_n246 Li+    0.500000    0.500000    0.490000    2.000000 Uiso  0.2700
 Sc1_A1_n247 Sc3+    0.000000    0.000000    0.492000    2.000000 Uiso  1.0000
 Cl1_A1_n247 Cl1-    0.242100    0.768700    0.492000    2.000000 Uiso  1.0000
 Cl2_A1_n247 Cl1-    0.757900    0.231300    0.492000    2.000000 Uiso  1.0000
 Cl3_A1_n247 Cl1-    0.238700    0.237100    0.492322    2.000000 Uiso  1.0000
 Cl4_A1_n247 Cl1-    0.761300    0.762900    0.492322    2.000000 Uiso  1.0000
 Cl5_A1_n247 Cl1-    0.238700    0.237100    0.491678    2.000000 Uiso  1.0000
 Cl6_A1_n247 Cl1-    0.761300    0.762900    0.491678    2.000000 Uiso  1.0000
 Li3_A1_n247 Li+    0.500000    0.500000    0.492000    2.000000 Uiso  0.2700
 Sc1_A1_n248 Sc3+    0.000000    0.000000    0.494000    2.000000 Uiso  1.0000
 Cl1_A1_n248 Cl1-    0.242100    0.768700    0.494000    2.000000 Uiso  1.0000
 Cl2_A1_n248 Cl1-    0.757900    0.231300    0.494000    2.000000 Uiso  1.0000
 Cl3_A1_n248 Cl1-    0.238700    0.237100    0.494322    2.000000 Uiso  1.0000
 Cl4_A1_n248 Cl1-    0.761300    0.762900    0.494322    2.000000 Uiso  1.0000
 Cl5_A1_n248 Cl1-    0.238700    0.237100    0.493678    2.000000 Uiso  1.0000
 Cl6_A1_n248 Cl1-    0.761300    0.762900    0.493678    2.000000 Uiso  1.0000
 Li3_A1_n248 Li+    0.500000    0.500000    0.494000    2.000000 Uiso  0.2700
 Sc1_A1_n249 Sc3+    0.000000    0.000000    0.496000    2.000000 Uiso  1.0000
 Cl1_A1_n249 Cl1-    0.242100    0.768700    0.496000    2.000000 Uiso  1.0000
 Cl2_A1_n249 Cl1-    0.757900    0.231300    0.496000    2.000000 Uiso  1.0000
 Cl3_A1_n249 Cl1-    0.238700    0.237100    0.496322    2.000000 Uiso  1.0000
 Cl4_A1_n249 Cl1-    0.761300    0.762900    0.496322    2.000000 Uiso  1.0000
 Cl5_A1_n249 Cl1-    0.238700    0.237100    0.495678    2.000000 Uiso  1.0000
 Cl6_A1_n249 Cl1-    0.761300    0.762900    0.495678    2.000000 Uiso  1.0000
 Li3_A1_n249 Li+    0.500000    0.500000    0.496000    2.000000 Uiso  0.2700
 Sc1_A1_n250 Sc3+    0.000000    0.000000    0.498000    2.000000 Uiso  1.0000
 Cl1_A1_n250 Cl1-    0.242100    0.768700    0.498000    2.000000 Uiso  1.0000
 Cl2_A1_n250 Cl1-    0.757900    0.231300    0.498000    2.000000 Uiso  1.0000
 Cl3_A1_n250 Cl1-    0.238700    0.237100    0.498322    2.000000 Uiso  1.0000
 Cl4_A1_n250 Cl1-    0.761300    0.762900    0.498322    2.000000 Uiso  1.0000
 Cl5_A1_n250 Cl1-    0.238700    0.237100    0.497678    2.000000 Uiso  1.0000
 Cl6_A1_n250 Cl1-    0.761300    0.762900    0.497678    2.000000 Uiso  1.0000
 Li3_A1_n250 Li+    0.500000    0.500000    0.498000    2.000000 Uiso  0.2700
 Sc1_A1_n251 Sc3+    0.000000    0.000000    0.500000    2.000000 Uiso  1.0000
 Cl1_A1_n251 Cl1-    0.242100    0.768700    0.500000    2.000000 Uiso  1.0000
 Cl2_A1_n251 Cl1-    0.757900    0.231300    0.500000    2.000000 Uiso  1.0000
 Cl3_A1_n251 Cl1-    0.238700    0.237100    0.500322    2.000000 Uiso  1.0000
 Cl4_A1_n251 Cl1-    0.761300    0.762900    0.500322    2.000000 Uiso  1.0000
 Cl5_A1_n251 Cl1-    0.238700    0.237100    0.499678    2.000000 Uiso  1.0000
 Cl6_A1_n251 Cl1-    0.761300    0.762900    0.499678    2.000000 Uiso  1.0000
 Li3_A1_n251 Li+    0.500000    0.500000    0.500000    2.000000 Uiso  0.2700
 Sc1_A1_n252 Sc3+    0.000000    0.000000    0.502000    2.000000 Uiso  1.0000
 Cl1_A1_n252 Cl1-    0.242100    0.768700    0.502000    2.000000 Uiso  1.0000
 Cl2_A1_n252 Cl1-    0.757900    0.231300    0.502000    2.000000 Uiso  1.0000
 Cl3_A1_n252 Cl1-    0.238700    0.237100    0.502322    2.000000 Uiso  1.0000
 Cl4_A1_n252 Cl1-    0.761300    0.762900    0.502322    2.000000 Uiso  1.0000
 Cl5_A1_n252 Cl1-    0.238700    0.237100    0.501678    2.000000 Uiso  1.0000
 Cl6_A1_n252 Cl1-    0.761300    0.762900    0.501678    2.000000 Uiso  1.0000
 Li3_A1_n252 Li+    0.500000    0.500000    0.502000    2.000000 Uiso  0.2700
 Sc1_A1_n253 Sc3+    0.000000    0.000000    0.504000    2.000000 Uiso  1.0000
 Cl1_A1_n253 Cl1-    0.242100    0.768700    0.504000    2.000000 Uiso  1.0000
 Cl2_A1_n253 Cl1-    0.757900    0.231300    0.504000    2.000000 Uiso  1.0000
 Cl3_A1_n253 Cl1-    0.238700    0.237100    0.504322    2.000000 Uiso  1.0000
 Cl4_A1_n253 Cl1-    0.761300    0.762900    0.504322    2.000000 Uiso  1.0000
 Cl5_A1_n253 Cl1-    0.238700    0.237100    0.503678    2.000000 Uiso  1.0000
 Cl6_A1_n253 Cl1-    0.761300    0.762900    0.503678    2.000000 Uiso  1.0000
 Li3_A1_n253 Li+    0.500000    0.500000    0.504000    2.000000 Uiso  0.2700
 Sc1_A1_n254 Sc3+    0.000000    0.000000    0.506000    2.000000 Uiso  1.0000
 Cl1_A1_n254 Cl1-    0.242100    0.768700    0.506000    2.000000 Uiso  1.0000
 Cl2_A1_n254 Cl1-    0.757900    0.231300    0.506000    2.000000 Uiso  1.0000
 Cl3_A1_n254 Cl1-    0.238700    0.237100    0.506322    2.000000 Uiso  1.0000
 Cl4_A1_n254 Cl1-    0.761300    0.762900    0.506322    2.000000 Uiso  1.0000
 Cl5_A1_n254 Cl1-    0.238700    0.237100    0.505678    2.000000 Uiso  1.0000
 Cl6_A1_n254 Cl1-    0.761300    0.762900    0.505678    2.000000 Uiso  1.0000
 Li3_A1_n254 Li+    0.500000    0.500000    0.506000    2.000000 Uiso  0.2700
 Sc1_A1_n255 Sc3+    0.000000    0.000000    0.508000    2.000000 Uiso  1.0000
 Cl1_A1_n255 Cl1-    0.242100    0.768700    0.508000    2.000000 Uiso  1.0000
 Cl2_A1_n255 Cl1-    0.757900    0.231300    0.508000    2.000000 Uiso  1.0000
 Cl3_A1_n255 Cl1-    0.238700    0.237100    0.508322    2.000000 Uiso  1.0000
 Cl4_A1_n255 Cl1-    0.761300    0.762900    0.508322    2.000000 Uiso  1.0000
 Cl5_A1_n255 Cl1-    0.238700    0.237100    0.507678    2.000000 Uiso  1.0000
 Cl6_A1_n255 Cl1-    0.761300    0.762900    0.507678    2.000000 Uiso  1.0000
 Li3_A1_n255 Li+    0.500000    0.500000    0.508000    2.000000 Uiso  0.2700
 Sc1_A1_n256 Sc3+    0.000000    0.000000    0.510000    2.000000 Uiso  1.0000
 Cl1_A1_n256 Cl1-    0.242100    0.768700    0.510000    2.000000 Uiso  1.0000
 Cl2_A1_n256 Cl1-    0.757900    0.231300    0.510000    2.000000 Uiso  1.0000
 Cl3_A1_n256 Cl1-    0.238700    0.237100    0.510322    2.000000 Uiso  1.0000
 Cl4_A1_n256 Cl1-    0.761300    0.762900    0.510322    2.000000 Uiso  1.0000
 Cl5_A1_n256 Cl1-    0.238700    0.237100    0.509678    2.000000 Uiso  1.0000
 Cl6_A1_n256 Cl1-    0.761300    0.762900    0.509678    2.000000 Uiso  1.0000
 Li3_A1_n256 Li+    0.500000    0.500000    0.510000    2.000000 Uiso  0.2700
 Sc1_A1_n257 Sc3+    0.000000    0.000000    0.512000    2.000000 Uiso  1.0000
 Cl1_A1_n257 Cl1-    0.242100    0.768700    0.512000    2.000000 Uiso  1.0000
 Cl2_A1_n257 Cl1-    0.757900    0.231300    0.512000    2.000000 Uiso  1.0000
 Cl3_A1_n257 Cl1-    0.238700    0.237100    0.512322    2.000000 Uiso  1.0000
 Cl4_A1_n257 Cl1-    0.761300    0.762900    0.512322    2.000000 Uiso  1.0000
 Cl5_A1_n257 Cl1-    0.238700    0.237100    0.511678    2.000000 Uiso  1.0000
 Cl6_A1_n257 Cl1-    0.761300    0.762900    0.511678    2.000000 Uiso  1.0000
 Li3_A1_n257 Li+    0.500000    0.500000    0.512000    2.000000 Uiso  0.2700
 Sc1_A1_n258 Sc3+    0.000000    0.000000    0.514000    2.000000 Uiso  1.0000
 Cl1_A1_n258 Cl1-    0.242100    0.768700    0.514000    2.000000 Uiso  1.0000
 Cl2_A1_n258 Cl1-    0.757900    0.231300    0.514000    2.000000 Uiso  1.0000
 Cl3_A1_n258 Cl1-    0.238700    0.237100    0.514322    2.000000 Uiso  1.0000
 Cl4_A1_n258 Cl1-    0.761300    0.762900    0.514322    2.000000 Uiso  1.0000
 Cl5_A1_n258 Cl1-    0.238700    0.237100    0.513678    2.000000 Uiso  1.0000
 Cl6_A1_n258 Cl1-    0.761300    0.762900    0.513678    2.000000 Uiso  1.0000
 Li3_A1_n258 Li+    0.500000    0.500000    0.514000    2.000000 Uiso  0.2700
 Sc1_A1_n259 Sc3+    0.000000    0.000000    0.516000    2.000000 Uiso  1.0000
 Cl1_A1_n259 Cl1-    0.242100    0.768700    0.516000    2.000000 Uiso  1.0000
 Cl2_A1_n259 Cl1-    0.757900    0.231300    0.516000    2.000000 Uiso  1.0000
 Cl3_A1_n259 Cl1-    0.238700    0.237100    0.516322    2.000000 Uiso  1.0000
 Cl4_A1_n259 Cl1-    0.761300    0.762900    0.516322    2.000000 Uiso  1.0000
 Cl5_A1_n259 Cl1-    0.238700    0.237100    0.515678    2.000000 Uiso  1.0000
 Cl6_A1_n259 Cl1-    0.761300    0.762900    0.515678    2.000000 Uiso  1.0000
 Li3_A1_n259 Li+    0.500000    0.500000    0.516000    2.000000 Uiso  0.2700
 Sc1_A1_n260 Sc3+    0.000000    0.000000    0.518000    2.000000 Uiso  1.0000
 Cl1_A1_n260 Cl1-    0.242100    0.768700    0.518000    2.000000 Uiso  1.0000
 Cl2_A1_n260 Cl1-    0.757900    0.231300    0.518000    2.000000 Uiso  1.0000
 Cl3_A1_n260 Cl1-    0.238700    0.237100    0.518322    2.000000 Uiso  1.0000
 Cl4_A1_n260 Cl1-    0.761300    0.762900    0.518322    2.000000 Uiso  1.0000
 Cl5_A1_n260 Cl1-    0.238700    0.237100    0.517678    2.000000 Uiso  1.0000
 Cl6_A1_n260 Cl1-    0.761300    0.762900    0.517678    2.000000 Uiso  1.0000
 Li3_A1_n260 Li+    0.500000    0.500000    0.518000    2.000000 Uiso  0.2700
 Sc1_A1_n261 Sc3+    0.000000    0.000000    0.520000    2.000000 Uiso  1.0000
 Cl1_A1_n261 Cl1-    0.242100    0.768700    0.520000    2.000000 Uiso  1.0000
 Cl2_A1_n261 Cl1-    0.757900    0.231300    0.520000    2.000000 Uiso  1.0000
 Cl3_A1_n261 Cl1-    0.238700    0.237100    0.520322    2.000000 Uiso  1.0000
 Cl4_A1_n261 Cl1-    0.761300    0.762900    0.520322    2.000000 Uiso  1.0000
 Cl5_A1_n261 Cl1-    0.238700    0.237100    0.519678    2.000000 Uiso  1.0000
 Cl6_A1_n261 Cl1-    0.761300    0.762900    0.519678    2.000000 Uiso  1.0000
 Li3_A1_n261 Li+    0.500000    0.500000    0.520000    2.000000 Uiso  0.2700
 Sc1_A1_n262 Sc3+    0.000000    0.000000    0.522000    2.000000 Uiso  1.0000
 Cl1_A1_n262 Cl1-    0.242100    0.768700    0.522000    2.000000 Uiso  1.0000
 Cl2_A1_n262 Cl1-    0.757900    0.231300    0.522000    2.000000 Uiso  1.0000
 Cl3_A1_n262 Cl1-    0.238700    0.237100    0.522322    2.000000 Uiso  1.0000
 Cl4_A1_n262 Cl1-    0.761300    0.762900    0.522322    2.000000 Uiso  1.0000
 Cl5_A1_n262 Cl1-    0.238700    0.237100    0.521678    2.000000 Uiso  1.0000
 Cl6_A1_n262 Cl1-    0.761300    0.762900    0.521678    2.000000 Uiso  1.0000
 Li3_A1_n262 Li+    0.500000    0.500000    0.522000    2.000000 Uiso  0.2700
 Sc1_A1_n263 Sc3+    0.000000    0.000000    0.524000    2.000000 Uiso  1.0000
 Cl1_A1_n263 Cl1-    0.242100    0.768700    0.524000    2.000000 Uiso  1.0000
 Cl2_A1_n263 Cl1-    0.757900    0.231300    0.524000    2.000000 Uiso  1.0000
 Cl3_A1_n263 Cl1-    0.238700    0.237100    0.524322    2.000000 Uiso  1.0000
 Cl4_A1_n263 Cl1-    0.761300    0.762900    0.524322    2.000000 Uiso  1.0000
 Cl5_A1_n263 Cl1-    0.238700    0.237100    0.523678    2.000000 Uiso  1.0000
 Cl6_A1_n263 Cl1-    0.761300    0.762900    0.523678    2.000000 Uiso  1.0000
 Li3_A1_n263 Li+    0.500000    0.500000    0.524000    2.000000 Uiso  0.2700
 Sc1_A1_n264 Sc3+    0.000000    0.000000    0.526000    2.000000 Uiso  1.0000
 Cl1_A1_n264 Cl1-    0.242100    0.768700    0.526000    2.000000 Uiso  1.0000
 Cl2_A1_n264 Cl1-    0.757900    0.231300    0.526000    2.000000 Uiso  1.0000
 Cl3_A1_n264 Cl1-    0.238700    0.237100    0.526322    2.000000 Uiso  1.0000
 Cl4_A1_n264 Cl1-    0.761300    0.762900    0.526322    2.000000 Uiso  1.0000
 Cl5_A1_n264 Cl1-    0.238700    0.237100    0.525678    2.000000 Uiso  1.0000
 Cl6_A1_n264 Cl1-    0.761300    0.762900    0.525678    2.000000 Uiso  1.0000
 Li3_A1_n264 Li+    0.500000    0.500000    0.526000    2.000000 Uiso  0.2700
 Sc1_A1_n265 Sc3+    0.000000    0.000000    0.528000    2.000000 Uiso  1.0000
 Cl1_A1_n265 Cl1-    0.242100    0.768700    0.528000    2.000000 Uiso  1.0000
 Cl2_A1_n265 Cl1-    0.757900    0.231300    0.528000    2.000000 Uiso  1.0000
 Cl3_A1_n265 Cl1-    0.238700    0.237100    0.528322    2.000000 Uiso  1.0000
 Cl4_A1_n265 Cl1-    0.761300    0.762900    0.528322    2.000000 Uiso  1.0000
 Cl5_A1_n265 Cl1-    0.238700    0.237100    0.527678    2.000000 Uiso  1.0000
 Cl6_A1_n265 Cl1-    0.761300    0.762900    0.527678    2.000000 Uiso  1.0000
 Li3_A1_n265 Li+    0.500000    0.500000    0.528000    2.000000 Uiso  0.2700
 Sc1_A1_n266 Sc3+    0.000000    0.000000    0.530000    2.000000 Uiso  1.0000
 Cl1_A1_n266 Cl1-    0.242100    0.768700    0.530000    2.000000 Uiso  1.0000
 Cl2_A1_n266 Cl1-    0.757900    0.231300    0.530000    2.000000 Uiso  1.0000
 Cl3_A1_n266 Cl1-    0.238700    0.237100    0.530322    2.000000 Uiso  1.0000
 Cl4_A1_n266 Cl1-    0.761300    0.762900    0.530322    2.000000 Uiso  1.0000
 Cl5_A1_n266 Cl1-    0.238700    0.237100    0.529678    2.000000 Uiso  1.0000
 Cl6_A1_n266 Cl1-    0.761300    0.762900    0.529678    2.000000 Uiso  1.0000
 Li3_A1_n266 Li+    0.500000    0.500000    0.530000    2.000000 Uiso  0.2700
 Sc1_A1_n267 Sc3+    0.000000    0.000000    0.532000    2.000000 Uiso  1.0000
 Cl1_A1_n267 Cl1-    0.242100    0.768700    0.532000    2.000000 Uiso  1.0000
 Cl2_A1_n267 Cl1-    0.757900    0.231300    0.532000    2.000000 Uiso  1.0000
 Cl3_A1_n267 Cl1-    0.238700    0.237100    0.532322    2.000000 Uiso  1.0000
 Cl4_A1_n267 Cl1-    0.761300    0.762900    0.532322    2.000000 Uiso  1.0000
 Cl5_A1_n267 Cl1-    0.238700    0.237100    0.531678    2.000000 Uiso  1.0000
 Cl6_A1_n267 Cl1-    0.761300    0.762900    0.531678    2.000000 Uiso  1.0000
 Li3_A1_n267 Li+    0.500000    0.500000    0.532000    2.000000 Uiso  0.2700
 Sc1_A1_n268 Sc3+    0.000000    0.000000    0.534000    2.000000 Uiso  1.0000
 Cl1_A1_n268 Cl1-    0.242100    0.768700    0.534000    2.000000 Uiso  1.0000
 Cl2_A1_n268 Cl1-    0.757900    0.231300    0.534000    2.000000 Uiso  1.0000
 Cl3_A1_n268 Cl1-    0.238700    0.237100    0.534322    2.000000 Uiso  1.0000
 Cl4_A1_n268 Cl1-    0.761300    0.762900    0.534322    2.000000 Uiso  1.0000
 Cl5_A1_n268 Cl1-    0.238700    0.237100    0.533678    2.000000 Uiso  1.0000
 Cl6_A1_n268 Cl1-    0.761300    0.762900    0.533678    2.000000 Uiso  1.0000
 Li3_A1_n268 Li+    0.500000    0.500000    0.534000    2.000000 Uiso  0.2700
 Sc1_A1_n269 Sc3+    0.000000    0.000000    0.536000    2.000000 Uiso  1.0000
 Cl1_A1_n269 Cl1-    0.242100    0.768700    0.536000    2.000000 Uiso  1.0000
 Cl2_A1_n269 Cl1-    0.757900    0.231300    0.536000    2.000000 Uiso  1.0000
 Cl3_A1_n269 Cl1-    0.238700    0.237100    0.536322    2.000000 Uiso  1.0000
 Cl4_A1_n269 Cl1-    0.761300    0.762900    0.536322    2.000000 Uiso  1.0000
 Cl5_A1_n269 Cl1-    0.238700    0.237100    0.535678    2.000000 Uiso  1.0000
 Cl6_A1_n269 Cl1-    0.761300    0.762900    0.535678    2.000000 Uiso  1.0000
 Li3_A1_n269 Li+    0.500000    0.500000    0.536000    2.000000 Uiso  0.2700
 Sc1_A1_n270 Sc3+    0.000000    0.000000    0.538000    2.000000 Uiso  1.0000
 Cl1_A1_n270 Cl1-    0.242100    0.768700    0.538000    2.000000 Uiso  1.0000
 Cl2_A1_n270 Cl1-    0.757900    0.231300    0.538000    2.000000 Uiso  1.0000
 Cl3_A1_n270 Cl1-    0.238700    0.237100    0.538322    2.000000 Uiso  1.0000
 Cl4_A1_n270 Cl1-    0.761300    0.762900    0.538322    2.000000 Uiso  1.0000
 Cl5_A1_n270 Cl1-    0.238700    0.237100    0.537678    2.000000 Uiso  1.0000
 Cl6_A1_n270 Cl1-    0.761300    0.762900    0.537678    2.000000 Uiso  1.0000
 Li3_A1_n270 Li+    0.500000    0.500000    0.538000    2.000000 Uiso  0.2700
 Sc1_A1_n271 Sc3+    0.000000    0.000000    0.540000    2.000000 Uiso  1.0000
 Cl1_A1_n271 Cl1-    0.242100    0.768700    0.540000    2.000000 Uiso  1.0000
 Cl2_A1_n271 Cl1-    0.757900    0.231300    0.540000    2.000000 Uiso  1.0000
 Cl3_A1_n271 Cl1-    0.238700    0.237100    0.540322    2.000000 Uiso  1.0000
 Cl4_A1_n271 Cl1-    0.761300    0.762900    0.540322    2.000000 Uiso  1.0000
 Cl5_A1_n271 Cl1-    0.238700    0.237100    0.539678    2.000000 Uiso  1.0000
 Cl6_A1_n271 Cl1-    0.761300    0.762900    0.539678    2.000000 Uiso  1.0000
 Li3_A1_n271 Li+    0.500000    0.500000    0.540000    2.000000 Uiso  0.2700
 Sc1_A1_n272 Sc3+    0.000000    0.000000    0.542000    2.000000 Uiso  1.0000
 Cl1_A1_n272 Cl1-    0.242100    0.768700    0.542000    2.000000 Uiso  1.0000
 Cl2_A1_n272 Cl1-    0.757900    0.231300    0.542000    2.000000 Uiso  1.0000
 Cl3_A1_n272 Cl1-    0.238700    0.237100    0.542322    2.000000 Uiso  1.0000
 Cl4_A1_n272 Cl1-    0.761300    0.762900    0.542322    2.000000 Uiso  1.0000
 Cl5_A1_n272 Cl1-    0.238700    0.237100    0.541678    2.000000 Uiso  1.0000
 Cl6_A1_n272 Cl1-    0.761300    0.762900    0.541678    2.000000 Uiso  1.0000
 Li3_A1_n272 Li+    0.500000    0.500000    0.542000    2.000000 Uiso  0.2700
 Sc1_A1_n273 Sc3+    0.000000    0.000000    0.544000    2.000000 Uiso  1.0000
 Cl1_A1_n273 Cl1-    0.242100    0.768700    0.544000    2.000000 Uiso  1.0000
 Cl2_A1_n273 Cl1-    0.757900    0.231300    0.544000    2.000000 Uiso  1.0000
 Cl3_A1_n273 Cl1-    0.238700    0.237100    0.544322    2.000000 Uiso  1.0000
 Cl4_A1_n273 Cl1-    0.761300    0.762900    0.544322    2.000000 Uiso  1.0000
 Cl5_A1_n273 Cl1-    0.238700    0.237100    0.543678    2.000000 Uiso  1.0000
 Cl6_A1_n273 Cl1-    0.761300    0.762900    0.543678    2.000000 Uiso  1.0000
 Li3_A1_n273 Li+    0.500000    0.500000    0.544000    2.000000 Uiso  0.2700
 Sc1_A1_n274 Sc3+    0.000000    0.000000    0.546000    2.000000 Uiso  1.0000
 Cl1_A1_n274 Cl1-    0.242100    0.768700    0.546000    2.000000 Uiso  1.0000
 Cl2_A1_n274 Cl1-    0.757900    0.231300    0.546000    2.000000 Uiso  1.0000
 Cl3_A1_n274 Cl1-    0.238700    0.237100    0.546322    2.000000 Uiso  1.0000
 Cl4_A1_n274 Cl1-    0.761300    0.762900    0.546322    2.000000 Uiso  1.0000
 Cl5_A1_n274 Cl1-    0.238700    0.237100    0.545678    2.000000 Uiso  1.0000
 Cl6_A1_n274 Cl1-    0.761300    0.762900    0.545678    2.000000 Uiso  1.0000
 Li3_A1_n274 Li+    0.500000    0.500000    0.546000    2.000000 Uiso  0.2700
 Sc1_A1_n275 Sc3+    0.000000    0.000000    0.548000    2.000000 Uiso  1.0000
 Cl1_A1_n275 Cl1-    0.242100    0.768700    0.548000    2.000000 Uiso  1.0000
 Cl2_A1_n275 Cl1-    0.757900    0.231300    0.548000    2.000000 Uiso  1.0000
 Cl3_A1_n275 Cl1-    0.238700    0.237100    0.548322    2.000000 Uiso  1.0000
 Cl4_A1_n275 Cl1-    0.761300    0.762900    0.548322    2.000000 Uiso  1.0000
 Cl5_A1_n275 Cl1-    0.238700    0.237100    0.547678    2.000000 Uiso  1.0000
 Cl6_A1_n275 Cl1-    0.761300    0.762900    0.547678    2.000000 Uiso  1.0000
 Li3_A1_n275 Li+    0.500000    0.500000    0.548000    2.000000 Uiso  0.2700
 Sc1_A1_n276 Sc3+    0.000000    0.000000    0.550000    2.000000 Uiso  1.0000
 Cl1_A1_n276 Cl1-    0.242100    0.768700    0.550000    2.000000 Uiso  1.0000
 Cl2_A1_n276 Cl1-    0.757900    0.231300    0.550000    2.000000 Uiso  1.0000
 Cl3_A1_n276 Cl1-    0.238700    0.237100    0.550322    2.000000 Uiso  1.0000
 Cl4_A1_n276 Cl1-    0.761300    0.762900    0.550322    2.000000 Uiso  1.0000
 Cl5_A1_n276 Cl1-    0.238700    0.237100    0.549678    2.000000 Uiso  1.0000
 Cl6_A1_n276 Cl1-    0.761300    0.762900    0.549678    2.000000 Uiso  1.0000
 Li3_A1_n276 Li+    0.500000    0.500000    0.550000    2.000000 Uiso  0.2700
 Sc1_A1_n277 Sc3+    0.000000    0.000000    0.552000    2.000000 Uiso  1.0000
 Cl1_A1_n277 Cl1-    0.242100    0.768700    0.552000    2.000000 Uiso  1.0000
 Cl2_A1_n277 Cl1-    0.757900    0.231300    0.552000    2.000000 Uiso  1.0000
 Cl3_A1_n277 Cl1-    0.238700    0.237100    0.552322    2.000000 Uiso  1.0000
 Cl4_A1_n277 Cl1-    0.761300    0.762900    0.552322    2.000000 Uiso  1.0000
 Cl5_A1_n277 Cl1-    0.238700    0.237100    0.551678    2.000000 Uiso  1.0000
 Cl6_A1_n277 Cl1-    0.761300    0.762900    0.551678    2.000000 Uiso  1.0000
 Li3_A1_n277 Li+    0.500000    0.500000    0.552000    2.000000 Uiso  0.2700
 Sc1_A1_n278 Sc3+    0.000000    0.000000    0.554000    2.000000 Uiso  1.0000
 Cl1_A1_n278 Cl1-    0.242100    0.768700    0.554000    2.000000 Uiso  1.0000
 Cl2_A1_n278 Cl1-    0.757900    0.231300    0.554000    2.000000 Uiso  1.0000
 Cl3_A1_n278 Cl1-    0.238700    0.237100    0.554322    2.000000 Uiso  1.0000
 Cl4_A1_n278 Cl1-    0.761300    0.762900    0.554322    2.000000 Uiso  1.0000
 Cl5_A1_n278 Cl1-    0.238700    0.237100    0.553678    2.000000 Uiso  1.0000
 Cl6_A1_n278 Cl1-    0.761300    0.762900    0.553678    2.000000 Uiso  1.0000
 Li3_A1_n278 Li+    0.500000    0.500000    0.554000    2.000000 Uiso  0.2700
 Sc1_A1_n279 Sc3+    0.000000    0.000000    0.556000    2.000000 Uiso  1.0000
 Cl1_A1_n279 Cl1-    0.242100    0.768700    0.556000    2.000000 Uiso  1.0000
 Cl2_A1_n279 Cl1-    0.757900    0.231300    0.556000    2.000000 Uiso  1.0000
 Cl3_A1_n279 Cl1-    0.238700    0.237100    0.556322    2.000000 Uiso  1.0000
 Cl4_A1_n279 Cl1-    0.761300    0.762900    0.556322    2.000000 Uiso  1.0000
 Cl5_A1_n279 Cl1-    0.238700    0.237100    0.555678    2.000000 Uiso  1.0000
 Cl6_A1_n279 Cl1-    0.761300    0.762900    0.555678    2.000000 Uiso  1.0000
 Li3_A1_n279 Li+    0.500000    0.500000    0.556000    2.000000 Uiso  0.2700
 Sc1_A1_n280 Sc3+    0.000000    0.000000    0.558000    2.000000 Uiso  1.0000
 Cl1_A1_n280 Cl1-    0.242100    0.768700    0.558000    2.000000 Uiso  1.0000
 Cl2_A1_n280 Cl1-    0.757900    0.231300    0.558000    2.000000 Uiso  1.0000
 Cl3_A1_n280 Cl1-    0.238700    0.237100    0.558322    2.000000 Uiso  1.0000
 Cl4_A1_n280 Cl1-    0.761300    0.762900    0.558322    2.000000 Uiso  1.0000
 Cl5_A1_n280 Cl1-    0.238700    0.237100    0.557678    2.000000 Uiso  1.0000
 Cl6_A1_n280 Cl1-    0.761300    0.762900    0.557678    2.000000 Uiso  1.0000
 Li3_A1_n280 Li+    0.500000    0.500000    0.558000    2.000000 Uiso  0.2700
 Sc1_A1_n281 Sc3+    0.000000    0.000000    0.560000    2.000000 Uiso  1.0000
 Cl1_A1_n281 Cl1-    0.242100    0.768700    0.560000    2.000000 Uiso  1.0000
 Cl2_A1_n281 Cl1-    0.757900    0.231300    0.560000    2.000000 Uiso  1.0000
 Cl3_A1_n281 Cl1-    0.238700    0.237100    0.560322    2.000000 Uiso  1.0000
 Cl4_A1_n281 Cl1-    0.761300    0.762900    0.560322    2.000000 Uiso  1.0000
 Cl5_A1_n281 Cl1-    0.238700    0.237100    0.559678    2.000000 Uiso  1.0000
 Cl6_A1_n281 Cl1-    0.761300    0.762900    0.559678    2.000000 Uiso  1.0000
 Li3_A1_n281 Li+    0.500000    0.500000    0.560000    2.000000 Uiso  0.2700
 Sc1_A1_n282 Sc3+    0.000000    0.000000    0.562000    2.000000 Uiso  1.0000
 Cl1_A1_n282 Cl1-    0.242100    0.768700    0.562000    2.000000 Uiso  1.0000
 Cl2_A1_n282 Cl1-    0.757900    0.231300    0.562000    2.000000 Uiso  1.0000
 Cl3_A1_n282 Cl1-    0.238700    0.237100    0.562322    2.000000 Uiso  1.0000
 Cl4_A1_n282 Cl1-    0.761300    0.762900    0.562322    2.000000 Uiso  1.0000
 Cl5_A1_n282 Cl1-    0.238700    0.237100    0.561678    2.000000 Uiso  1.0000
 Cl6_A1_n282 Cl1-    0.761300    0.762900    0.561678    2.000000 Uiso  1.0000
 Li3_A1_n282 Li+    0.500000    0.500000    0.562000    2.000000 Uiso  0.2700
 Sc1_A1_n283 Sc3+    0.000000    0.000000    0.564000    2.000000 Uiso  1.0000
 Cl1_A1_n283 Cl1-    0.242100    0.768700    0.564000    2.000000 Uiso  1.0000
 Cl2_A1_n283 Cl1-    0.757900    0.231300    0.564000    2.000000 Uiso  1.0000
 Cl3_A1_n283 Cl1-    0.238700    0.237100    0.564322    2.000000 Uiso  1.0000
 Cl4_A1_n283 Cl1-    0.761300    0.762900    0.564322    2.000000 Uiso  1.0000
 Cl5_A1_n283 Cl1-    0.238700    0.237100    0.563678    2.000000 Uiso  1.0000
 Cl6_A1_n283 Cl1-    0.761300    0.762900    0.563678    2.000000 Uiso  1.0000
 Li3_A1_n283 Li+    0.500000    0.500000    0.564000    2.000000 Uiso  0.2700
 Sc1_A1_n284 Sc3+    0.000000    0.000000    0.566000    2.000000 Uiso  1.0000
 Cl1_A1_n284 Cl1-    0.242100    0.768700    0.566000    2.000000 Uiso  1.0000
 Cl2_A1_n284 Cl1-    0.757900    0.231300    0.566000    2.000000 Uiso  1.0000
 Cl3_A1_n284 Cl1-    0.238700    0.237100    0.566322    2.000000 Uiso  1.0000
 Cl4_A1_n284 Cl1-    0.761300    0.762900    0.566322    2.000000 Uiso  1.0000
 Cl5_A1_n284 Cl1-    0.238700    0.237100    0.565678    2.000000 Uiso  1.0000
 Cl6_A1_n284 Cl1-    0.761300    0.762900    0.565678    2.000000 Uiso  1.0000
 Li3_A1_n284 Li+    0.500000    0.500000    0.566000    2.000000 Uiso  0.2700
 Sc1_A1_n285 Sc3+    0.000000    0.000000    0.568000    2.000000 Uiso  1.0000
 Cl1_A1_n285 Cl1-    0.242100    0.768700    0.568000    2.000000 Uiso  1.0000
 Cl2_A1_n285 Cl1-    0.757900    0.231300    0.568000    2.000000 Uiso  1.0000
 Cl3_A1_n285 Cl1-    0.238700    0.237100    0.568322    2.000000 Uiso  1.0000
 Cl4_A1_n285 Cl1-    0.761300    0.762900    0.568322    2.000000 Uiso  1.0000
 Cl5_A1_n285 Cl1-    0.238700    0.237100    0.567678    2.000000 Uiso  1.0000
 Cl6_A1_n285 Cl1-    0.761300    0.762900    0.567678    2.000000 Uiso  1.0000
 Li3_A1_n285 Li+    0.500000    0.500000    0.568000    2.000000 Uiso  0.2700
 Sc1_A1_n286 Sc3+    0.000000    0.000000    0.570000    2.000000 Uiso  1.0000
 Cl1_A1_n286 Cl1-    0.242100    0.768700    0.570000    2.000000 Uiso  1.0000
 Cl2_A1_n286 Cl1-    0.757900    0.231300    0.570000    2.000000 Uiso  1.0000
 Cl3_A1_n286 Cl1-    0.238700    0.237100    0.570322    2.000000 Uiso  1.0000
 Cl4_A1_n286 Cl1-    0.761300    0.762900    0.570322    2.000000 Uiso  1.0000
 Cl5_A1_n286 Cl1-    0.238700    0.237100    0.569678    2.000000 Uiso  1.0000
 Cl6_A1_n286 Cl1-    0.761300    0.762900    0.569678    2.000000 Uiso  1.0000
 Li3_A1_n286 Li+    0.500000    0.500000    0.570000    2.000000 Uiso  0.2700
 Sc1_A1_n287 Sc3+    0.000000    0.000000    0.572000    2.000000 Uiso  1.0000
 Cl1_A1_n287 Cl1-    0.242100    0.768700    0.572000    2.000000 Uiso  1.0000
 Cl2_A1_n287 Cl1-    0.757900    0.231300    0.572000    2.000000 Uiso  1.0000
 Cl3_A1_n287 Cl1-    0.238700    0.237100    0.572322    2.000000 Uiso  1.0000
 Cl4_A1_n287 Cl1-    0.761300    0.762900    0.572322    2.000000 Uiso  1.0000
 Cl5_A1_n287 Cl1-    0.238700    0.237100    0.571678    2.000000 Uiso  1.0000
 Cl6_A1_n287 Cl1-    0.761300    0.762900    0.571678    2.000000 Uiso  1.0000
 Li3_A1_n287 Li+    0.500000    0.500000    0.572000    2.000000 Uiso  0.2700
 Sc1_A1_n288 Sc3+    0.000000    0.000000    0.574000    2.000000 Uiso  1.0000
 Cl1_A1_n288 Cl1-    0.242100    0.768700    0.574000    2.000000 Uiso  1.0000
 Cl2_A1_n288 Cl1-    0.757900    0.231300    0.574000    2.000000 Uiso  1.0000
 Cl3_A1_n288 Cl1-    0.238700    0.237100    0.574322    2.000000 Uiso  1.0000
 Cl4_A1_n288 Cl1-    0.761300    0.762900    0.574322    2.000000 Uiso  1.0000
 Cl5_A1_n288 Cl1-    0.238700    0.237100    0.573678    2.000000 Uiso  1.0000
 Cl6_A1_n288 Cl1-    0.761300    0.762900    0.573678    2.000000 Uiso  1.0000
 Li3_A1_n288 Li+    0.500000    0.500000    0.574000    2.000000 Uiso  0.2700
 Sc1_A1_n289 Sc3+    0.000000    0.000000    0.576000    2.000000 Uiso  1.0000
 Cl1_A1_n289 Cl1-    0.242100    0.768700    0.576000    2.000000 Uiso  1.0000
 Cl2_A1_n289 Cl1-    0.757900    0.231300    0.576000    2.000000 Uiso  1.0000
 Cl3_A1_n289 Cl1-    0.238700    0.237100    0.576322    2.000000 Uiso  1.0000
 Cl4_A1_n289 Cl1-    0.761300    0.762900    0.576322    2.000000 Uiso  1.0000
 Cl5_A1_n289 Cl1-    0.238700    0.237100    0.575678    2.000000 Uiso  1.0000
 Cl6_A1_n289 Cl1-    0.761300    0.762900    0.575678    2.000000 Uiso  1.0000
 Li3_A1_n289 Li+    0.500000    0.500000    0.576000    2.000000 Uiso  0.2700
 Sc1_A1_n290 Sc3+    0.000000    0.000000    0.578000    2.000000 Uiso  1.0000
 Cl1_A1_n290 Cl1-    0.242100    0.768700    0.578000    2.000000 Uiso  1.0000
 Cl2_A1_n290 Cl1-    0.757900    0.231300    0.578000    2.000000 Uiso  1.0000
 Cl3_A1_n290 Cl1-    0.238700    0.237100    0.578322    2.000000 Uiso  1.0000
 Cl4_A1_n290 Cl1-    0.761300    0.762900    0.578322    2.000000 Uiso  1.0000
 Cl5_A1_n290 Cl1-    0.238700    0.237100    0.577678    2.000000 Uiso  1.0000
 Cl6_A1_n290 Cl1-    0.761300    0.762900    0.577678    2.000000 Uiso  1.0000
 Li3_A1_n290 Li+    0.500000    0.500000    0.578000    2.000000 Uiso  0.2700
 Sc1_A1_n291 Sc3+    0.000000    0.000000    0.580000    2.000000 Uiso  1.0000
 Cl1_A1_n291 Cl1-    0.242100    0.768700    0.580000    2.000000 Uiso  1.0000
 Cl2_A1_n291 Cl1-    0.757900    0.231300    0.580000    2.000000 Uiso  1.0000
 Cl3_A1_n291 Cl1-    0.238700    0.237100    0.580322    2.000000 Uiso  1.0000
 Cl4_A1_n291 Cl1-    0.761300    0.762900    0.580322    2.000000 Uiso  1.0000
 Cl5_A1_n291 Cl1-    0.238700    0.237100    0.579678    2.000000 Uiso  1.0000
 Cl6_A1_n291 Cl1-    0.761300    0.762900    0.579678    2.000000 Uiso  1.0000
 Li3_A1_n291 Li+    0.500000    0.500000    0.580000    2.000000 Uiso  0.2700
 Sc1_A1_n292 Sc3+    0.000000    0.000000    0.582000    2.000000 Uiso  1.0000
 Cl1_A1_n292 Cl1-    0.242100    0.768700    0.582000    2.000000 Uiso  1.0000
 Cl2_A1_n292 Cl1-    0.757900    0.231300    0.582000    2.000000 Uiso  1.0000
 Cl3_A1_n292 Cl1-    0.238700    0.237100    0.582322    2.000000 Uiso  1.0000
 Cl4_A1_n292 Cl1-    0.761300    0.762900    0.582322    2.000000 Uiso  1.0000
 Cl5_A1_n292 Cl1-    0.238700    0.237100    0.581678    2.000000 Uiso  1.0000
 Cl6_A1_n292 Cl1-    0.761300    0.762900    0.581678    2.000000 Uiso  1.0000
 Li3_A1_n292 Li+    0.500000    0.500000    0.582000    2.000000 Uiso  0.2700
 Sc1_A1_n293 Sc3+    0.000000    0.000000    0.584000    2.000000 Uiso  1.0000
 Cl1_A1_n293 Cl1-    0.242100    0.768700    0.584000    2.000000 Uiso  1.0000
 Cl2_A1_n293 Cl1-    0.757900    0.231300    0.584000    2.000000 Uiso  1.0000
 Cl3_A1_n293 Cl1-    0.238700    0.237100    0.584322    2.000000 Uiso  1.0000
 Cl4_A1_n293 Cl1-    0.761300    0.762900    0.584322    2.000000 Uiso  1.0000
 Cl5_A1_n293 Cl1-    0.238700    0.237100    0.583678    2.000000 Uiso  1.0000
 Cl6_A1_n293 Cl1-    0.761300    0.762900    0.583678    2.000000 Uiso  1.0000
 Li3_A1_n293 Li+    0.500000    0.500000    0.584000    2.000000 Uiso  0.2700
 Sc1_A1_n294 Sc3+    0.000000    0.000000    0.586000    2.000000 Uiso  1.0000
 Cl1_A1_n294 Cl1-    0.242100    0.768700    0.586000    2.000000 Uiso  1.0000
 Cl2_A1_n294 Cl1-    0.757900    0.231300    0.586000    2.000000 Uiso  1.0000
 Cl3_A1_n294 Cl1-    0.238700    0.237100    0.586322    2.000000 Uiso  1.0000
 Cl4_A1_n294 Cl1-    0.761300    0.762900    0.586322    2.000000 Uiso  1.0000
 Cl5_A1_n294 Cl1-    0.238700    0.237100    0.585678    2.000000 Uiso  1.0000
 Cl6_A1_n294 Cl1-    0.761300    0.762900    0.585678    2.000000 Uiso  1.0000
 Li3_A1_n294 Li+    0.500000    0.500000    0.586000    2.000000 Uiso  0.2700
 Sc1_A1_n295 Sc3+    0.000000    0.000000    0.588000    2.000000 Uiso  1.0000
 Cl1_A1_n295 Cl1-    0.242100    0.768700    0.588000    2.000000 Uiso  1.0000
 Cl2_A1_n295 Cl1-    0.757900    0.231300    0.588000    2.000000 Uiso  1.0000
 Cl3_A1_n295 Cl1-    0.238700    0.237100    0.588322    2.000000 Uiso  1.0000
 Cl4_A1_n295 Cl1-    0.761300    0.762900    0.588322    2.000000 Uiso  1.0000
 Cl5_A1_n295 Cl1-    0.238700    0.237100    0.587678    2.000000 Uiso  1.0000
 Cl6_A1_n295 Cl1-    0.761300    0.762900    0.587678    2.000000 Uiso  1.0000
 Li3_A1_n295 Li+    0.500000    0.500000    0.588000    2.000000 Uiso  0.2700
 Sc1_A1_n296 Sc3+    0.000000    0.000000    0.590000    2.000000 Uiso  1.0000
 Cl1_A1_n296 Cl1-    0.242100    0.768700    0.590000    2.000000 Uiso  1.0000
 Cl2_A1_n296 Cl1-    0.757900    0.231300    0.590000    2.000000 Uiso  1.0000
 Cl3_A1_n296 Cl1-    0.238700    0.237100    0.590322    2.000000 Uiso  1.0000
 Cl4_A1_n296 Cl1-    0.761300    0.762900    0.590322    2.000000 Uiso  1.0000
 Cl5_A1_n296 Cl1-    0.238700    0.237100    0.589678    2.000000 Uiso  1.0000
 Cl6_A1_n296 Cl1-    0.761300    0.762900    0.589678    2.000000 Uiso  1.0000
 Li3_A1_n296 Li+    0.500000    0.500000    0.590000    2.000000 Uiso  0.2700
 Sc1_A1_n297 Sc3+    0.000000    0.000000    0.592000    2.000000 Uiso  1.0000
 Cl1_A1_n297 Cl1-    0.242100    0.768700    0.592000    2.000000 Uiso  1.0000
 Cl2_A1_n297 Cl1-    0.757900    0.231300    0.592000    2.000000 Uiso  1.0000
 Cl3_A1_n297 Cl1-    0.238700    0.237100    0.592322    2.000000 Uiso  1.0000
 Cl4_A1_n297 Cl1-    0.761300    0.762900    0.592322    2.000000 Uiso  1.0000
 Cl5_A1_n297 Cl1-    0.238700    0.237100    0.591678    2.000000 Uiso  1.0000
 Cl6_A1_n297 Cl1-    0.761300    0.762900    0.591678    2.000000 Uiso  1.0000
 Li3_A1_n297 Li+    0.500000    0.500000    0.592000    2.000000 Uiso  0.2700
 Sc1_A1_n298 Sc3+    0.000000    0.000000    0.594000    2.000000 Uiso  1.0000
 Cl1_A1_n298 Cl1-    0.242100    0.768700    0.594000    2.000000 Uiso  1.0000
 Cl2_A1_n298 Cl1-    0.757900    0.231300    0.594000    2.000000 Uiso  1.0000
 Cl3_A1_n298 Cl1-    0.238700    0.237100    0.594322    2.000000 Uiso  1.0000
 Cl4_A1_n298 Cl1-    0.761300    0.762900    0.594322    2.000000 Uiso  1.0000
 Cl5_A1_n298 Cl1-    0.238700    0.237100    0.593678    2.000000 Uiso  1.0000
 Cl6_A1_n298 Cl1-    0.761300    0.762900    0.593678    2.000000 Uiso  1.0000
 Li3_A1_n298 Li+    0.500000    0.500000    0.594000    2.000000 Uiso  0.2700
 Sc1_A1_n299 Sc3+    0.000000    0.000000    0.596000    2.000000 Uiso  1.0000
 Cl1_A1_n299 Cl1-    0.242100    0.768700    0.596000    2.000000 Uiso  1.0000
 Cl2_A1_n299 Cl1-    0.757900    0.231300    0.596000    2.000000 Uiso  1.0000
 Cl3_A1_n299 Cl1-    0.238700    0.237100    0.596322    2.000000 Uiso  1.0000
 Cl4_A1_n299 Cl1-    0.761300    0.762900    0.596322    2.000000 Uiso  1.0000
 Cl5_A1_n299 Cl1-    0.238700    0.237100    0.595678    2.000000 Uiso  1.0000
 Cl6_A1_n299 Cl1-    0.761300    0.762900    0.595678    2.000000 Uiso  1.0000
 Li3_A1_n299 Li+    0.500000    0.500000    0.596000    2.000000 Uiso  0.2700
 Sc1_A1_n300 Sc3+    0.000000    0.000000    0.598000    2.000000 Uiso  1.0000
 Cl1_A1_n300 Cl1-    0.242100    0.768700    0.598000    2.000000 Uiso  1.0000
 Cl2_A1_n300 Cl1-    0.757900    0.231300    0.598000    2.000000 Uiso  1.0000
 Cl3_A1_n300 Cl1-    0.238700    0.237100    0.598322    2.000000 Uiso  1.0000
 Cl4_A1_n300 Cl1-    0.761300    0.762900    0.598322    2.000000 Uiso  1.0000
 Cl5_A1_n300 Cl1-    0.238700    0.237100    0.597678    2.000000 Uiso  1.0000
 Cl6_A1_n300 Cl1-    0.761300    0.762900    0.597678    2.000000 Uiso  1.0000
 Li3_A1_n300 Li+    0.500000    0.500000    0.598000    2.000000 Uiso  0.2700
 Sc1_A1_n301 Sc3+    0.000000    0.000000    0.600000    2.000000 Uiso  1.0000
 Cl1_A1_n301 Cl1-    0.242100    0.768700    0.600000    2.000000 Uiso  1.0000
 Cl2_A1_n301 Cl1-    0.757900    0.231300    0.600000    2.000000 Uiso  1.0000
 Cl3_A1_n301 Cl1-    0.238700    0.237100    0.600322    2.000000 Uiso  1.0000
 Cl4_A1_n301 Cl1-    0.761300    0.762900    0.600322    2.000000 Uiso  1.0000
 Cl5_A1_n301 Cl1-    0.238700    0.237100    0.599678    2.000000 Uiso  1.0000
 Cl6_A1_n301 Cl1-    0.761300    0.762900    0.599678    2.000000 Uiso  1.0000
 Li3_A1_n301 Li+    0.500000    0.500000    0.600000    2.000000 Uiso  0.2700
 Sc1_A1_n302 Sc3+    0.000000    0.000000    0.602000    2.000000 Uiso  1.0000
 Cl1_A1_n302 Cl1-    0.242100    0.768700    0.602000    2.000000 Uiso  1.0000
 Cl2_A1_n302 Cl1-    0.757900    0.231300    0.602000    2.000000 Uiso  1.0000
 Cl3_A1_n302 Cl1-    0.238700    0.237100    0.602322    2.000000 Uiso  1.0000
 Cl4_A1_n302 Cl1-    0.761300    0.762900    0.602322    2.000000 Uiso  1.0000
 Cl5_A1_n302 Cl1-    0.238700    0.237100    0.601678    2.000000 Uiso  1.0000
 Cl6_A1_n302 Cl1-    0.761300    0.762900    0.601678    2.000000 Uiso  1.0000
 Li3_A1_n302 Li+    0.500000    0.500000    0.602000    2.000000 Uiso  0.2700
 Sc1_A1_n303 Sc3+    0.000000    0.000000    0.604000    2.000000 Uiso  1.0000
 Cl1_A1_n303 Cl1-    0.242100    0.768700    0.604000    2.000000 Uiso  1.0000
 Cl2_A1_n303 Cl1-    0.757900    0.231300    0.604000    2.000000 Uiso  1.0000
 Cl3_A1_n303 Cl1-    0.238700    0.237100    0.604322    2.000000 Uiso  1.0000
 Cl4_A1_n303 Cl1-    0.761300    0.762900    0.604322    2.000000 Uiso  1.0000
 Cl5_A1_n303 Cl1-    0.238700    0.237100    0.603678    2.000000 Uiso  1.0000
 Cl6_A1_n303 Cl1-    0.761300    0.762900    0.603678    2.000000 Uiso  1.0000
 Li3_A1_n303 Li+    0.500000    0.500000    0.604000    2.000000 Uiso  0.2700
 Sc1_A1_n304 Sc3+    0.000000    0.000000    0.606000    2.000000 Uiso  1.0000
 Cl1_A1_n304 Cl1-    0.242100    0.768700    0.606000    2.000000 Uiso  1.0000
 Cl2_A1_n304 Cl1-    0.757900    0.231300    0.606000    2.000000 Uiso  1.0000
 Cl3_A1_n304 Cl1-    0.238700    0.237100    0.606322    2.000000 Uiso  1.0000
 Cl4_A1_n304 Cl1-    0.761300    0.762900    0.606322    2.000000 Uiso  1.0000
 Cl5_A1_n304 Cl1-    0.238700    0.237100    0.605678    2.000000 Uiso  1.0000
 Cl6_A1_n304 Cl1-    0.761300    0.762900    0.605678    2.000000 Uiso  1.0000
 Li3_A1_n304 Li+    0.500000    0.500000    0.606000    2.000000 Uiso  0.2700
 Sc1_A1_n305 Sc3+    0.000000    0.000000    0.608000    2.000000 Uiso  1.0000
 Cl1_A1_n305 Cl1-    0.242100    0.768700    0.608000    2.000000 Uiso  1.0000
 Cl2_A1_n305 Cl1-    0.757900    0.231300    0.608000    2.000000 Uiso  1.0000
 Cl3_A1_n305 Cl1-    0.238700    0.237100    0.608322    2.000000 Uiso  1.0000
 Cl4_A1_n305 Cl1-    0.761300    0.762900    0.608322    2.000000 Uiso  1.0000
 Cl5_A1_n305 Cl1-    0.238700    0.237100    0.607678    2.000000 Uiso  1.0000
 Cl6_A1_n305 Cl1-    0.761300    0.762900    0.607678    2.000000 Uiso  1.0000
 Li3_A1_n305 Li+    0.500000    0.500000    0.608000    2.000000 Uiso  0.2700
 Sc1_A1_n306 Sc3+    0.000000    0.000000    0.610000    2.000000 Uiso  1.0000
 Cl1_A1_n306 Cl1-    0.242100    0.768700    0.610000    2.000000 Uiso  1.0000
 Cl2_A1_n306 Cl1-    0.757900    0.231300    0.610000    2.000000 Uiso  1.0000
 Cl3_A1_n306 Cl1-    0.238700    0.237100    0.610322    2.000000 Uiso  1.0000
 Cl4_A1_n306 Cl1-    0.761300    0.762900    0.610322    2.000000 Uiso  1.0000
 Cl5_A1_n306 Cl1-    0.238700    0.237100    0.609678    2.000000 Uiso  1.0000
 Cl6_A1_n306 Cl1-    0.761300    0.762900    0.609678    2.000000 Uiso  1.0000
 Li3_A1_n306 Li+    0.500000    0.500000    0.610000    2.000000 Uiso  0.2700
 Sc1_A1_n307 Sc3+    0.000000    0.000000    0.612000    2.000000 Uiso  1.0000
 Cl1_A1_n307 Cl1-    0.242100    0.768700    0.612000    2.000000 Uiso  1.0000
 Cl2_A1_n307 Cl1-    0.757900    0.231300    0.612000    2.000000 Uiso  1.0000
 Cl3_A1_n307 Cl1-    0.238700    0.237100    0.612322    2.000000 Uiso  1.0000
 Cl4_A1_n307 Cl1-    0.761300    0.762900    0.612322    2.000000 Uiso  1.0000
 Cl5_A1_n307 Cl1-    0.238700    0.237100    0.611678    2.000000 Uiso  1.0000
 Cl6_A1_n307 Cl1-    0.761300    0.762900    0.611678    2.000000 Uiso  1.0000
 Li3_A1_n307 Li+    0.500000    0.500000    0.612000    2.000000 Uiso  0.2700
 Sc1_A1_n308 Sc3+    0.000000    0.000000    0.614000    2.000000 Uiso  1.0000
 Cl1_A1_n308 Cl1-    0.242100    0.768700    0.614000    2.000000 Uiso  1.0000
 Cl2_A1_n308 Cl1-    0.757900    0.231300    0.614000    2.000000 Uiso  1.0000
 Cl3_A1_n308 Cl1-    0.238700    0.237100    0.614322    2.000000 Uiso  1.0000
 Cl4_A1_n308 Cl1-    0.761300    0.762900    0.614322    2.000000 Uiso  1.0000
 Cl5_A1_n308 Cl1-    0.238700    0.237100    0.613678    2.000000 Uiso  1.0000
 Cl6_A1_n308 Cl1-    0.761300    0.762900    0.613678    2.000000 Uiso  1.0000
 Li3_A1_n308 Li+    0.500000    0.500000    0.614000    2.000000 Uiso  0.2700
 Sc1_A1_n309 Sc3+    0.000000    0.000000    0.616000    2.000000 Uiso  1.0000
 Cl1_A1_n309 Cl1-    0.242100    0.768700    0.616000    2.000000 Uiso  1.0000
 Cl2_A1_n309 Cl1-    0.757900    0.231300    0.616000    2.000000 Uiso  1.0000
 Cl3_A1_n309 Cl1-    0.238700    0.237100    0.616322    2.000000 Uiso  1.0000
 Cl4_A1_n309 Cl1-    0.761300    0.762900    0.616322    2.000000 Uiso  1.0000
 Cl5_A1_n309 Cl1-    0.238700    0.237100    0.615678    2.000000 Uiso  1.0000
 Cl6_A1_n309 Cl1-    0.761300    0.762900    0.615678    2.000000 Uiso  1.0000
 Li3_A1_n309 Li+    0.500000    0.500000    0.616000    2.000000 Uiso  0.2700
 Sc1_A1_n310 Sc3+    0.000000    0.000000    0.618000    2.000000 Uiso  1.0000
 Cl1_A1_n310 Cl1-    0.242100    0.768700    0.618000    2.000000 Uiso  1.0000
 Cl2_A1_n310 Cl1-    0.757900    0.231300    0.618000    2.000000 Uiso  1.0000
 Cl3_A1_n310 Cl1-    0.238700    0.237100    0.618322    2.000000 Uiso  1.0000
 Cl4_A1_n310 Cl1-    0.761300    0.762900    0.618322    2.000000 Uiso  1.0000
 Cl5_A1_n310 Cl1-    0.238700    0.237100    0.617678    2.000000 Uiso  1.0000
 Cl6_A1_n310 Cl1-    0.761300    0.762900    0.617678    2.000000 Uiso  1.0000
 Li3_A1_n310 Li+    0.500000    0.500000    0.618000    2.000000 Uiso  0.2700
 Sc1_A1_n311 Sc3+    0.000000    0.000000    0.620000    2.000000 Uiso  1.0000
 Cl1_A1_n311 Cl1-    0.242100    0.768700    0.620000    2.000000 Uiso  1.0000
 Cl2_A1_n311 Cl1-    0.757900    0.231300    0.620000    2.000000 Uiso  1.0000
 Cl3_A1_n311 Cl1-    0.238700    0.237100    0.620322    2.000000 Uiso  1.0000
 Cl4_A1_n311 Cl1-    0.761300    0.762900    0.620322    2.000000 Uiso  1.0000
 Cl5_A1_n311 Cl1-    0.238700    0.237100    0.619678    2.000000 Uiso  1.0000
 Cl6_A1_n311 Cl1-    0.761300    0.762900    0.619678    2.000000 Uiso  1.0000
 Li3_A1_n311 Li+    0.500000    0.500000    0.620000    2.000000 Uiso  0.2700
 Sc1_A1_n312 Sc3+    0.000000    0.000000    0.622000    2.000000 Uiso  1.0000
 Cl1_A1_n312 Cl1-    0.242100    0.768700    0.622000    2.000000 Uiso  1.0000
 Cl2_A1_n312 Cl1-    0.757900    0.231300    0.622000    2.000000 Uiso  1.0000
 Cl3_A1_n312 Cl1-    0.238700    0.237100    0.622322    2.000000 Uiso  1.0000
 Cl4_A1_n312 Cl1-    0.761300    0.762900    0.622322    2.000000 Uiso  1.0000
 Cl5_A1_n312 Cl1-    0.238700    0.237100    0.621678    2.000000 Uiso  1.0000
 Cl6_A1_n312 Cl1-    0.761300    0.762900    0.621678    2.000000 Uiso  1.0000
 Li3_A1_n312 Li+    0.500000    0.500000    0.622000    2.000000 Uiso  0.2700
 Sc1_A1_n313 Sc3+    0.000000    0.000000    0.624000    2.000000 Uiso  1.0000
 Cl1_A1_n313 Cl1-    0.242100    0.768700    0.624000    2.000000 Uiso  1.0000
 Cl2_A1_n313 Cl1-    0.757900    0.231300    0.624000    2.000000 Uiso  1.0000
 Cl3_A1_n313 Cl1-    0.238700    0.237100    0.624322    2.000000 Uiso  1.0000
 Cl4_A1_n313 Cl1-    0.761300    0.762900    0.624322    2.000000 Uiso  1.0000
 Cl5_A1_n313 Cl1-    0.238700    0.237100    0.623678    2.000000 Uiso  1.0000
 Cl6_A1_n313 Cl1-    0.761300    0.762900    0.623678    2.000000 Uiso  1.0000
 Li3_A1_n313 Li+    0.500000    0.500000    0.624000    2.000000 Uiso  0.2700
 Sc1_A1_n314 Sc3+    0.000000    0.000000    0.626000    2.000000 Uiso  1.0000
 Cl1_A1_n314 Cl1-    0.242100    0.768700    0.626000    2.000000 Uiso  1.0000
 Cl2_A1_n314 Cl1-    0.757900    0.231300    0.626000    2.000000 Uiso  1.0000
 Cl3_A1_n314 Cl1-    0.238700    0.237100    0.626322    2.000000 Uiso  1.0000
 Cl4_A1_n314 Cl1-    0.761300    0.762900    0.626322    2.000000 Uiso  1.0000
 Cl5_A1_n314 Cl1-    0.238700    0.237100    0.625678    2.000000 Uiso  1.0000
 Cl6_A1_n314 Cl1-    0.761300    0.762900    0.625678    2.000000 Uiso  1.0000
 Li3_A1_n314 Li+    0.500000    0.500000    0.626000    2.000000 Uiso  0.2700
 Sc1_A1_n315 Sc3+    0.000000    0.000000    0.628000    2.000000 Uiso  1.0000
 Cl1_A1_n315 Cl1-    0.242100    0.768700    0.628000    2.000000 Uiso  1.0000
 Cl2_A1_n315 Cl1-    0.757900    0.231300    0.628000    2.000000 Uiso  1.0000
 Cl3_A1_n315 Cl1-    0.238700    0.237100    0.628322    2.000000 Uiso  1.0000
 Cl4_A1_n315 Cl1-    0.761300    0.762900    0.628322    2.000000 Uiso  1.0000
 Cl5_A1_n315 Cl1-    0.238700    0.237100    0.627678    2.000000 Uiso  1.0000
 Cl6_A1_n315 Cl1-    0.761300    0.762900    0.627678    2.000000 Uiso  1.0000
 Li3_A1_n315 Li+    0.500000    0.500000    0.628000    2.000000 Uiso  0.2700
 Sc1_A1_n316 Sc3+    0.000000    0.000000    0.630000    2.000000 Uiso  1.0000
 Cl1_A1_n316 Cl1-    0.242100    0.768700    0.630000    2.000000 Uiso  1.0000
 Cl2_A1_n316 Cl1-    0.757900    0.231300    0.630000    2.000000 Uiso  1.0000
 Cl3_A1_n316 Cl1-    0.238700    0.237100    0.630322    2.000000 Uiso  1.0000
 Cl4_A1_n316 Cl1-    0.761300    0.762900    0.630322    2.000000 Uiso  1.0000
 Cl5_A1_n316 Cl1-    0.238700    0.237100    0.629678    2.000000 Uiso  1.0000
 Cl6_A1_n316 Cl1-    0.761300    0.762900    0.629678    2.000000 Uiso  1.0000
 Li3_A1_n316 Li+    0.500000    0.500000    0.630000    2.000000 Uiso  0.2700
 Sc1_A1_n317 Sc3+    0.000000    0.000000    0.632000    2.000000 Uiso  1.0000
 Cl1_A1_n317 Cl1-    0.242100    0.768700    0.632000    2.000000 Uiso  1.0000
 Cl2_A1_n317 Cl1-    0.757900    0.231300    0.632000    2.000000 Uiso  1.0000
 Cl3_A1_n317 Cl1-    0.238700    0.237100    0.632322    2.000000 Uiso  1.0000
 Cl4_A1_n317 Cl1-    0.761300    0.762900    0.632322    2.000000 Uiso  1.0000
 Cl5_A1_n317 Cl1-    0.238700    0.237100    0.631678    2.000000 Uiso  1.0000
 Cl6_A1_n317 Cl1-    0.761300    0.762900    0.631678    2.000000 Uiso  1.0000
 Li3_A1_n317 Li+    0.500000    0.500000    0.632000    2.000000 Uiso  0.2700
 Sc1_A1_n318 Sc3+    0.000000    0.000000    0.634000    2.000000 Uiso  1.0000
 Cl1_A1_n318 Cl1-    0.242100    0.768700    0.634000    2.000000 Uiso  1.0000
 Cl2_A1_n318 Cl1-    0.757900    0.231300    0.634000    2.000000 Uiso  1.0000
 Cl3_A1_n318 Cl1-    0.238700    0.237100    0.634322    2.000000 Uiso  1.0000
 Cl4_A1_n318 Cl1-    0.761300    0.762900    0.634322    2.000000 Uiso  1.0000
 Cl5_A1_n318 Cl1-    0.238700    0.237100    0.633678    2.000000 Uiso  1.0000
 Cl6_A1_n318 Cl1-    0.761300    0.762900    0.633678    2.000000 Uiso  1.0000
 Li3_A1_n318 Li+    0.500000    0.500000    0.634000    2.000000 Uiso  0.2700
 Sc1_A1_n319 Sc3+    0.000000    0.000000    0.636000    2.000000 Uiso  1.0000
 Cl1_A1_n319 Cl1-    0.242100    0.768700    0.636000    2.000000 Uiso  1.0000
 Cl2_A1_n319 Cl1-    0.757900    0.231300    0.636000    2.000000 Uiso  1.0000
 Cl3_A1_n319 Cl1-    0.238700    0.237100    0.636322    2.000000 Uiso  1.0000
 Cl4_A1_n319 Cl1-    0.761300    0.762900    0.636322    2.000000 Uiso  1.0000
 Cl5_A1_n319 Cl1-    0.238700    0.237100    0.635678    2.000000 Uiso  1.0000
 Cl6_A1_n319 Cl1-    0.761300    0.762900    0.635678    2.000000 Uiso  1.0000
 Li3_A1_n319 Li+    0.500000    0.500000    0.636000    2.000000 Uiso  0.2700
 Sc1_A1_n320 Sc3+    0.000000    0.000000    0.638000    2.000000 Uiso  1.0000
 Cl1_A1_n320 Cl1-    0.242100    0.768700    0.638000    2.000000 Uiso  1.0000
 Cl2_A1_n320 Cl1-    0.757900    0.231300    0.638000    2.000000 Uiso  1.0000
 Cl3_A1_n320 Cl1-    0.238700    0.237100    0.638322    2.000000 Uiso  1.0000
 Cl4_A1_n320 Cl1-    0.761300    0.762900    0.638322    2.000000 Uiso  1.0000
 Cl5_A1_n320 Cl1-    0.238700    0.237100    0.637678    2.000000 Uiso  1.0000
 Cl6_A1_n320 Cl1-    0.761300    0.762900    0.637678    2.000000 Uiso  1.0000
 Li3_A1_n320 Li+    0.500000    0.500000    0.638000    2.000000 Uiso  0.2700
 Sc1_A1_n321 Sc3+    0.000000    0.000000    0.640000    2.000000 Uiso  1.0000
 Cl1_A1_n321 Cl1-    0.242100    0.768700    0.640000    2.000000 Uiso  1.0000
 Cl2_A1_n321 Cl1-    0.757900    0.231300    0.640000    2.000000 Uiso  1.0000
 Cl3_A1_n321 Cl1-    0.238700    0.237100    0.640322    2.000000 Uiso  1.0000
 Cl4_A1_n321 Cl1-    0.761300    0.762900    0.640322    2.000000 Uiso  1.0000
 Cl5_A1_n321 Cl1-    0.238700    0.237100    0.639678    2.000000 Uiso  1.0000
 Cl6_A1_n321 Cl1-    0.761300    0.762900    0.639678    2.000000 Uiso  1.0000
 Li3_A1_n321 Li+    0.500000    0.500000    0.640000    2.000000 Uiso  0.2700
 Sc1_A1_n322 Sc3+    0.000000    0.000000    0.642000    2.000000 Uiso  1.0000
 Cl1_A1_n322 Cl1-    0.242100    0.768700    0.642000    2.000000 Uiso  1.0000
 Cl2_A1_n322 Cl1-    0.757900    0.231300    0.642000    2.000000 Uiso  1.0000
 Cl3_A1_n322 Cl1-    0.238700    0.237100    0.642322    2.000000 Uiso  1.0000
 Cl4_A1_n322 Cl1-    0.761300    0.762900    0.642322    2.000000 Uiso  1.0000
 Cl5_A1_n322 Cl1-    0.238700    0.237100    0.641678    2.000000 Uiso  1.0000
 Cl6_A1_n322 Cl1-    0.761300    0.762900    0.641678    2.000000 Uiso  1.0000
 Li3_A1_n322 Li+    0.500000    0.500000    0.642000    2.000000 Uiso  0.2700
 Sc1_A1_n323 Sc3+    0.000000    0.000000    0.644000    2.000000 Uiso  1.0000
 Cl1_A1_n323 Cl1-    0.242100    0.768700    0.644000    2.000000 Uiso  1.0000
 Cl2_A1_n323 Cl1-    0.757900    0.231300    0.644000    2.000000 Uiso  1.0000
 Cl3_A1_n323 Cl1-    0.238700    0.237100    0.644322    2.000000 Uiso  1.0000
 Cl4_A1_n323 Cl1-    0.761300    0.762900    0.644322    2.000000 Uiso  1.0000
 Cl5_A1_n323 Cl1-    0.238700    0.237100    0.643678    2.000000 Uiso  1.0000
 Cl6_A1_n323 Cl1-    0.761300    0.762900    0.643678    2.000000 Uiso  1.0000
 Li3_A1_n323 Li+    0.500000    0.500000    0.644000    2.000000 Uiso  0.2700
 Sc1_A1_n324 Sc3+    0.000000    0.000000    0.646000    2.000000 Uiso  1.0000
 Cl1_A1_n324 Cl1-    0.242100    0.768700    0.646000    2.000000 Uiso  1.0000
 Cl2_A1_n324 Cl1-    0.757900    0.231300    0.646000    2.000000 Uiso  1.0000
 Cl3_A1_n324 Cl1-    0.238700    0.237100    0.646322    2.000000 Uiso  1.0000
 Cl4_A1_n324 Cl1-    0.761300    0.762900    0.646322    2.000000 Uiso  1.0000
 Cl5_A1_n324 Cl1-    0.238700    0.237100    0.645678    2.000000 Uiso  1.0000
 Cl6_A1_n324 Cl1-    0.761300    0.762900    0.645678    2.000000 Uiso  1.0000
 Li3_A1_n324 Li+    0.500000    0.500000    0.646000    2.000000 Uiso  0.2700
 Sc1_A1_n325 Sc3+    0.000000    0.000000    0.648000    2.000000 Uiso  1.0000
 Cl1_A1_n325 Cl1-    0.242100    0.768700    0.648000    2.000000 Uiso  1.0000
 Cl2_A1_n325 Cl1-    0.757900    0.231300    0.648000    2.000000 Uiso  1.0000
 Cl3_A1_n325 Cl1-    0.238700    0.237100    0.648322    2.000000 Uiso  1.0000
 Cl4_A1_n325 Cl1-    0.761300    0.762900    0.648322    2.000000 Uiso  1.0000
 Cl5_A1_n325 Cl1-    0.238700    0.237100    0.647678    2.000000 Uiso  1.0000
 Cl6_A1_n325 Cl1-    0.761300    0.762900    0.647678    2.000000 Uiso  1.0000
 Li3_A1_n325 Li+    0.500000    0.500000    0.648000    2.000000 Uiso  0.2700
 Sc1_A1_n326 Sc3+    0.000000    0.000000    0.650000    2.000000 Uiso  1.0000
 Cl1_A1_n326 Cl1-    0.242100    0.768700    0.650000    2.000000 Uiso  1.0000
 Cl2_A1_n326 Cl1-    0.757900    0.231300    0.650000    2.000000 Uiso  1.0000
 Cl3_A1_n326 Cl1-    0.238700    0.237100    0.650322    2.000000 Uiso  1.0000
 Cl4_A1_n326 Cl1-    0.761300    0.762900    0.650322    2.000000 Uiso  1.0000
 Cl5_A1_n326 Cl1-    0.238700    0.237100    0.649678    2.000000 Uiso  1.0000
 Cl6_A1_n326 Cl1-    0.761300    0.762900    0.649678    2.000000 Uiso  1.0000
 Li3_A1_n326 Li+    0.500000    0.500000    0.650000    2.000000 Uiso  0.2700
 Sc1_A1_n327 Sc3+    0.000000    0.000000    0.652000    2.000000 Uiso  1.0000
 Cl1_A1_n327 Cl1-    0.242100    0.768700    0.652000    2.000000 Uiso  1.0000
 Cl2_A1_n327 Cl1-    0.757900    0.231300    0.652000    2.000000 Uiso  1.0000
 Cl3_A1_n327 Cl1-    0.238700    0.237100    0.652322    2.000000 Uiso  1.0000
 Cl4_A1_n327 Cl1-    0.761300    0.762900    0.652322    2.000000 Uiso  1.0000
 Cl5_A1_n327 Cl1-    0.238700    0.237100    0.651678    2.000000 Uiso  1.0000
 Cl6_A1_n327 Cl1-    0.761300    0.762900    0.651678    2.000000 Uiso  1.0000
 Li3_A1_n327 Li+    0.500000    0.500000    0.652000    2.000000 Uiso  0.2700
 Sc1_A1_n328 Sc3+    0.000000    0.000000    0.654000    2.000000 Uiso  1.0000
 Cl1_A1_n328 Cl1-    0.242100    0.768700    0.654000    2.000000 Uiso  1.0000
 Cl2_A1_n328 Cl1-    0.757900    0.231300    0.654000    2.000000 Uiso  1.0000
 Cl3_A1_n328 Cl1-    0.238700    0.237100    0.654322    2.000000 Uiso  1.0000
 Cl4_A1_n328 Cl1-    0.761300    0.762900    0.654322    2.000000 Uiso  1.0000
 Cl5_A1_n328 Cl1-    0.238700    0.237100    0.653678    2.000000 Uiso  1.0000
 Cl6_A1_n328 Cl1-    0.761300    0.762900    0.653678    2.000000 Uiso  1.0000
 Li3_A1_n328 Li+    0.500000    0.500000    0.654000    2.000000 Uiso  0.2700
 Sc1_A1_n329 Sc3+    0.000000    0.000000    0.656000    2.000000 Uiso  1.0000
 Cl1_A1_n329 Cl1-    0.242100    0.768700    0.656000    2.000000 Uiso  1.0000
 Cl2_A1_n329 Cl1-    0.757900    0.231300    0.656000    2.000000 Uiso  1.0000
 Cl3_A1_n329 Cl1-    0.238700    0.237100    0.656322    2.000000 Uiso  1.0000
 Cl4_A1_n329 Cl1-    0.761300    0.762900    0.656322    2.000000 Uiso  1.0000
 Cl5_A1_n329 Cl1-    0.238700    0.237100    0.655678    2.000000 Uiso  1.0000
 Cl6_A1_n329 Cl1-    0.761300    0.762900    0.655678    2.000000 Uiso  1.0000
 Li3_A1_n329 Li+    0.500000    0.500000    0.656000    2.000000 Uiso  0.2700
 Sc1_A1_n330 Sc3+    0.000000    0.000000    0.658000    2.000000 Uiso  1.0000
 Cl1_A1_n330 Cl1-    0.242100    0.768700    0.658000    2.000000 Uiso  1.0000
 Cl2_A1_n330 Cl1-    0.757900    0.231300    0.658000    2.000000 Uiso  1.0000
 Cl3_A1_n330 Cl1-    0.238700    0.237100    0.658322    2.000000 Uiso  1.0000
 Cl4_A1_n330 Cl1-    0.761300    0.762900    0.658322    2.000000 Uiso  1.0000
 Cl5_A1_n330 Cl1-    0.238700    0.237100    0.657678    2.000000 Uiso  1.0000
 Cl6_A1_n330 Cl1-    0.761300    0.762900    0.657678    2.000000 Uiso  1.0000
 Li3_A1_n330 Li+    0.500000    0.500000    0.658000    2.000000 Uiso  0.2700
 Sc1_A1_n331 Sc3+    0.000000    0.000000    0.660000    2.000000 Uiso  1.0000
 Cl1_A1_n331 Cl1-    0.242100    0.768700    0.660000    2.000000 Uiso  1.0000
 Cl2_A1_n331 Cl1-    0.757900    0.231300    0.660000    2.000000 Uiso  1.0000
 Cl3_A1_n331 Cl1-    0.238700    0.237100    0.660322    2.000000 Uiso  1.0000
 Cl4_A1_n331 Cl1-    0.761300    0.762900    0.660322    2.000000 Uiso  1.0000
 Cl5_A1_n331 Cl1-    0.238700    0.237100    0.659678    2.000000 Uiso  1.0000
 Cl6_A1_n331 Cl1-    0.761300    0.762900    0.659678    2.000000 Uiso  1.0000
 Li3_A1_n331 Li+    0.500000    0.500000    0.660000    2.000000 Uiso  0.2700
 Sc1_A1_n332 Sc3+    0.000000    0.000000    0.662000    2.000000 Uiso  1.0000
 Cl1_A1_n332 Cl1-    0.242100    0.768700    0.662000    2.000000 Uiso  1.0000
 Cl2_A1_n332 Cl1-    0.757900    0.231300    0.662000    2.000000 Uiso  1.0000
 Cl3_A1_n332 Cl1-    0.238700    0.237100    0.662322    2.000000 Uiso  1.0000
 Cl4_A1_n332 Cl1-    0.761300    0.762900    0.662322    2.000000 Uiso  1.0000
 Cl5_A1_n332 Cl1-    0.238700    0.237100    0.661678    2.000000 Uiso  1.0000
 Cl6_A1_n332 Cl1-    0.761300    0.762900    0.661678    2.000000 Uiso  1.0000
 Li3_A1_n332 Li+    0.500000    0.500000    0.662000    2.000000 Uiso  0.2700
 Sc1_A1_n333 Sc3+    0.000000    0.000000    0.664000    2.000000 Uiso  1.0000
 Cl1_A1_n333 Cl1-    0.242100    0.768700    0.664000    2.000000 Uiso  1.0000
 Cl2_A1_n333 Cl1-    0.757900    0.231300    0.664000    2.000000 Uiso  1.0000
 Cl3_A1_n333 Cl1-    0.238700    0.237100    0.664322    2.000000 Uiso  1.0000
 Cl4_A1_n333 Cl1-    0.761300    0.762900    0.664322    2.000000 Uiso  1.0000
 Cl5_A1_n333 Cl1-    0.238700    0.237100    0.663678    2.000000 Uiso  1.0000
 Cl6_A1_n333 Cl1-    0.761300    0.762900    0.663678    2.000000 Uiso  1.0000
 Li3_A1_n333 Li+    0.500000    0.500000    0.664000    2.000000 Uiso  0.2700
 Sc1_A1_n334 Sc3+    0.000000    0.000000    0.666000    2.000000 Uiso  1.0000
 Cl1_A1_n334 Cl1-    0.242100    0.768700    0.666000    2.000000 Uiso  1.0000
 Cl2_A1_n334 Cl1-    0.757900    0.231300    0.666000    2.000000 Uiso  1.0000
 Cl3_A1_n334 Cl1-    0.238700    0.237100    0.666322    2.000000 Uiso  1.0000
 Cl4_A1_n334 Cl1-    0.761300    0.762900    0.666322    2.000000 Uiso  1.0000
 Cl5_A1_n334 Cl1-    0.238700    0.237100    0.665678    2.000000 Uiso  1.0000
 Cl6_A1_n334 Cl1-    0.761300    0.762900    0.665678    2.000000 Uiso  1.0000
 Li3_A1_n334 Li+    0.500000    0.500000    0.666000    2.000000 Uiso  0.2700
 Sc1_A1_n335 Sc3+    0.000000    0.000000    0.668000    2.000000 Uiso  1.0000
 Cl1_A1_n335 Cl1-    0.242100    0.768700    0.668000    2.000000 Uiso  1.0000
 Cl2_A1_n335 Cl1-    0.757900    0.231300    0.668000    2.000000 Uiso  1.0000
 Cl3_A1_n335 Cl1-    0.238700    0.237100    0.668322    2.000000 Uiso  1.0000
 Cl4_A1_n335 Cl1-    0.761300    0.762900    0.668322    2.000000 Uiso  1.0000
 Cl5_A1_n335 Cl1-    0.238700    0.237100    0.667678    2.000000 Uiso  1.0000
 Cl6_A1_n335 Cl1-    0.761300    0.762900    0.667678    2.000000 Uiso  1.0000
 Li3_A1_n335 Li+    0.500000    0.500000    0.668000    2.000000 Uiso  0.2700
 Sc1_A1_n336 Sc3+    0.000000    0.000000    0.670000    2.000000 Uiso  1.0000
 Cl1_A1_n336 Cl1-    0.242100    0.768700    0.670000    2.000000 Uiso  1.0000
 Cl2_A1_n336 Cl1-    0.757900    0.231300    0.670000    2.000000 Uiso  1.0000
 Cl3_A1_n336 Cl1-    0.238700    0.237100    0.670322    2.000000 Uiso  1.0000
 Cl4_A1_n336 Cl1-    0.761300    0.762900    0.670322    2.000000 Uiso  1.0000
 Cl5_A1_n336 Cl1-    0.238700    0.237100    0.669678    2.000000 Uiso  1.0000
 Cl6_A1_n336 Cl1-    0.761300    0.762900    0.669678    2.000000 Uiso  1.0000
 Li3_A1_n336 Li+    0.500000    0.500000    0.670000    2.000000 Uiso  0.2700
 Sc1_A1_n337 Sc3+    0.000000    0.000000    0.672000    2.000000 Uiso  1.0000
 Cl1_A1_n337 Cl1-    0.242100    0.768700    0.672000    2.000000 Uiso  1.0000
 Cl2_A1_n337 Cl1-    0.757900    0.231300    0.672000    2.000000 Uiso  1.0000
 Cl3_A1_n337 Cl1-    0.238700    0.237100    0.672322    2.000000 Uiso  1.0000
 Cl4_A1_n337 Cl1-    0.761300    0.762900    0.672322    2.000000 Uiso  1.0000
 Cl5_A1_n337 Cl1-    0.238700    0.237100    0.671678    2.000000 Uiso  1.0000
 Cl6_A1_n337 Cl1-    0.761300    0.762900    0.671678    2.000000 Uiso  1.0000
 Li3_A1_n337 Li+    0.500000    0.500000    0.672000    2.000000 Uiso  0.2700
 Sc1_A1_n338 Sc3+    0.000000    0.000000    0.674000    2.000000 Uiso  1.0000
 Cl1_A1_n338 Cl1-    0.242100    0.768700    0.674000    2.000000 Uiso  1.0000
 Cl2_A1_n338 Cl1-    0.757900    0.231300    0.674000    2.000000 Uiso  1.0000
 Cl3_A1_n338 Cl1-    0.238700    0.237100    0.674322    2.000000 Uiso  1.0000
 Cl4_A1_n338 Cl1-    0.761300    0.762900    0.674322    2.000000 Uiso  1.0000
 Cl5_A1_n338 Cl1-    0.238700    0.237100    0.673678    2.000000 Uiso  1.0000
 Cl6_A1_n338 Cl1-    0.761300    0.762900    0.673678    2.000000 Uiso  1.0000
 Li3_A1_n338 Li+    0.500000    0.500000    0.674000    2.000000 Uiso  0.2700
 Sc1_A1_n339 Sc3+    0.000000    0.000000    0.676000    2.000000 Uiso  1.0000
 Cl1_A1_n339 Cl1-    0.242100    0.768700    0.676000    2.000000 Uiso  1.0000
 Cl2_A1_n339 Cl1-    0.757900    0.231300    0.676000    2.000000 Uiso  1.0000
 Cl3_A1_n339 Cl1-    0.238700    0.237100    0.676322    2.000000 Uiso  1.0000
 Cl4_A1_n339 Cl1-    0.761300    0.762900    0.676322    2.000000 Uiso  1.0000
 Cl5_A1_n339 Cl1-    0.238700    0.237100    0.675678    2.000000 Uiso  1.0000
 Cl6_A1_n339 Cl1-    0.761300    0.762900    0.675678    2.000000 Uiso  1.0000
 Li3_A1_n339 Li+    0.500000    0.500000    0.676000    2.000000 Uiso  0.2700
 Sc1_A1_n340 Sc3+    0.000000    0.000000    0.678000    2.000000 Uiso  1.0000
 Cl1_A1_n340 Cl1-    0.242100    0.768700    0.678000    2.000000 Uiso  1.0000
 Cl2_A1_n340 Cl1-    0.757900    0.231300    0.678000    2.000000 Uiso  1.0000
 Cl3_A1_n340 Cl1-    0.238700    0.237100    0.678322    2.000000 Uiso  1.0000
 Cl4_A1_n340 Cl1-    0.761300    0.762900    0.678322    2.000000 Uiso  1.0000
 Cl5_A1_n340 Cl1-    0.238700    0.237100    0.677678    2.000000 Uiso  1.0000
 Cl6_A1_n340 Cl1-    0.761300    0.762900    0.677678    2.000000 Uiso  1.0000
 Li3_A1_n340 Li+    0.500000    0.500000    0.678000    2.000000 Uiso  0.2700
 Sc1_A1_n341 Sc3+    0.000000    0.000000    0.680000    2.000000 Uiso  1.0000
 Cl1_A1_n341 Cl1-    0.242100    0.768700    0.680000    2.000000 Uiso  1.0000
 Cl2_A1_n341 Cl1-    0.757900    0.231300    0.680000    2.000000 Uiso  1.0000
 Cl3_A1_n341 Cl1-    0.238700    0.237100    0.680322    2.000000 Uiso  1.0000
 Cl4_A1_n341 Cl1-    0.761300    0.762900    0.680322    2.000000 Uiso  1.0000
 Cl5_A1_n341 Cl1-    0.238700    0.237100    0.679678    2.000000 Uiso  1.0000
 Cl6_A1_n341 Cl1-    0.761300    0.762900    0.679678    2.000000 Uiso  1.0000
 Li3_A1_n341 Li+    0.500000    0.500000    0.680000    2.000000 Uiso  0.2700
 Sc1_A1_n342 Sc3+    0.000000    0.000000    0.682000    2.000000 Uiso  1.0000
 Cl1_A1_n342 Cl1-    0.242100    0.768700    0.682000    2.000000 Uiso  1.0000
 Cl2_A1_n342 Cl1-    0.757900    0.231300    0.682000    2.000000 Uiso  1.0000
 Cl3_A1_n342 Cl1-    0.238700    0.237100    0.682322    2.000000 Uiso  1.0000
 Cl4_A1_n342 Cl1-    0.761300    0.762900    0.682322    2.000000 Uiso  1.0000
 Cl5_A1_n342 Cl1-    0.238700    0.237100    0.681678    2.000000 Uiso  1.0000
 Cl6_A1_n342 Cl1-    0.761300    0.762900    0.681678    2.000000 Uiso  1.0000
 Li3_A1_n342 Li+    0.500000    0.500000    0.682000    2.000000 Uiso  0.2700
 Sc1_A1_n343 Sc3+    0.000000    0.000000    0.684000    2.000000 Uiso  1.0000
 Cl1_A1_n343 Cl1-    0.242100    0.768700    0.684000    2.000000 Uiso  1.0000
 Cl2_A1_n343 Cl1-    0.757900    0.231300    0.684000    2.000000 Uiso  1.0000
 Cl3_A1_n343 Cl1-    0.238700    0.237100    0.684322    2.000000 Uiso  1.0000
 Cl4_A1_n343 Cl1-    0.761300    0.762900    0.684322    2.000000 Uiso  1.0000
 Cl5_A1_n343 Cl1-    0.238700    0.237100    0.683678    2.000000 Uiso  1.0000
 Cl6_A1_n343 Cl1-    0.761300    0.762900    0.683678    2.000000 Uiso  1.0000
 Li3_A1_n343 Li+    0.500000    0.500000    0.684000    2.000000 Uiso  0.2700
 Sc1_A1_n344 Sc3+    0.000000    0.000000    0.686000    2.000000 Uiso  1.0000
 Cl1_A1_n344 Cl1-    0.242100    0.768700    0.686000    2.000000 Uiso  1.0000
 Cl2_A1_n344 Cl1-    0.757900    0.231300    0.686000    2.000000 Uiso  1.0000
 Cl3_A1_n344 Cl1-    0.238700    0.237100    0.686322    2.000000 Uiso  1.0000
 Cl4_A1_n344 Cl1-    0.761300    0.762900    0.686322    2.000000 Uiso  1.0000
 Cl5_A1_n344 Cl1-    0.238700    0.237100    0.685678    2.000000 Uiso  1.0000
 Cl6_A1_n344 Cl1-    0.761300    0.762900    0.685678    2.000000 Uiso  1.0000
 Li3_A1_n344 Li+    0.500000    0.500000    0.686000    2.000000 Uiso  0.2700
 Sc1_A1_n345 Sc3+    0.000000    0.000000    0.688000    2.000000 Uiso  1.0000
 Cl1_A1_n345 Cl1-    0.242100    0.768700    0.688000    2.000000 Uiso  1.0000
 Cl2_A1_n345 Cl1-    0.757900    0.231300    0.688000    2.000000 Uiso  1.0000
 Cl3_A1_n345 Cl1-    0.238700    0.237100    0.688322    2.000000 Uiso  1.0000
 Cl4_A1_n345 Cl1-    0.761300    0.762900    0.688322    2.000000 Uiso  1.0000
 Cl5_A1_n345 Cl1-    0.238700    0.237100    0.687678    2.000000 Uiso  1.0000
 Cl6_A1_n345 Cl1-    0.761300    0.762900    0.687678    2.000000 Uiso  1.0000
 Li3_A1_n345 Li+    0.500000    0.500000    0.688000    2.000000 Uiso  0.2700
 Sc1_A1_n346 Sc3+    0.000000    0.000000    0.690000    2.000000 Uiso  1.0000
 Cl1_A1_n346 Cl1-    0.242100    0.768700    0.690000    2.000000 Uiso  1.0000
 Cl2_A1_n346 Cl1-    0.757900    0.231300    0.690000    2.000000 Uiso  1.0000
 Cl3_A1_n346 Cl1-    0.238700    0.237100    0.690322    2.000000 Uiso  1.0000
 Cl4_A1_n346 Cl1-    0.761300    0.762900    0.690322    2.000000 Uiso  1.0000
 Cl5_A1_n346 Cl1-    0.238700    0.237100    0.689678    2.000000 Uiso  1.0000
 Cl6_A1_n346 Cl1-    0.761300    0.762900    0.689678    2.000000 Uiso  1.0000
 Li3_A1_n346 Li+    0.500000    0.500000    0.690000    2.000000 Uiso  0.2700
 Sc1_A1_n347 Sc3+    0.000000    0.000000    0.692000    2.000000 Uiso  1.0000
 Cl1_A1_n347 Cl1-    0.242100    0.768700    0.692000    2.000000 Uiso  1.0000
 Cl2_A1_n347 Cl1-    0.757900    0.231300    0.692000    2.000000 Uiso  1.0000
 Cl3_A1_n347 Cl1-    0.238700    0.237100    0.692322    2.000000 Uiso  1.0000
 Cl4_A1_n347 Cl1-    0.761300    0.762900    0.692322    2.000000 Uiso  1.0000
 Cl5_A1_n347 Cl1-    0.238700    0.237100    0.691678    2.000000 Uiso  1.0000
 Cl6_A1_n347 Cl1-    0.761300    0.762900    0.691678    2.000000 Uiso  1.0000
 Li3_A1_n347 Li+    0.500000    0.500000    0.692000    2.000000 Uiso  0.2700
 Sc1_A1_n348 Sc3+    0.000000    0.000000    0.694000    2.000000 Uiso  1.0000
 Cl1_A1_n348 Cl1-    0.242100    0.768700    0.694000    2.000000 Uiso  1.0000
 Cl2_A1_n348 Cl1-    0.757900    0.231300    0.694000    2.000000 Uiso  1.0000
 Cl3_A1_n348 Cl1-    0.238700    0.237100    0.694322    2.000000 Uiso  1.0000
 Cl4_A1_n348 Cl1-    0.761300    0.762900    0.694322    2.000000 Uiso  1.0000
 Cl5_A1_n348 Cl1-    0.238700    0.237100    0.693678    2.000000 Uiso  1.0000
 Cl6_A1_n348 Cl1-    0.761300    0.762900    0.693678    2.000000 Uiso  1.0000
 Li3_A1_n348 Li+    0.500000    0.500000    0.694000    2.000000 Uiso  0.2700
 Sc1_A1_n349 Sc3+    0.000000    0.000000    0.696000    2.000000 Uiso  1.0000
 Cl1_A1_n349 Cl1-    0.242100    0.768700    0.696000    2.000000 Uiso  1.0000
 Cl2_A1_n349 Cl1-    0.757900    0.231300    0.696000    2.000000 Uiso  1.0000
 Cl3_A1_n349 Cl1-    0.238700    0.237100    0.696322    2.000000 Uiso  1.0000
 Cl4_A1_n349 Cl1-    0.761300    0.762900    0.696322    2.000000 Uiso  1.0000
 Cl5_A1_n349 Cl1-    0.238700    0.237100    0.695678    2.000000 Uiso  1.0000
 Cl6_A1_n349 Cl1-    0.761300    0.762900    0.695678    2.000000 Uiso  1.0000
 Li3_A1_n349 Li+    0.500000    0.500000    0.696000    2.000000 Uiso  0.2700
 Sc1_A1_n350 Sc3+    0.000000    0.000000    0.698000    2.000000 Uiso  1.0000
 Cl1_A1_n350 Cl1-    0.242100    0.768700    0.698000    2.000000 Uiso  1.0000
 Cl2_A1_n350 Cl1-    0.757900    0.231300    0.698000    2.000000 Uiso  1.0000
 Cl3_A1_n350 Cl1-    0.238700    0.237100    0.698322    2.000000 Uiso  1.0000
 Cl4_A1_n350 Cl1-    0.761300    0.762900    0.698322    2.000000 Uiso  1.0000
 Cl5_A1_n350 Cl1-    0.238700    0.237100    0.697678    2.000000 Uiso  1.0000
 Cl6_A1_n350 Cl1-    0.761300    0.762900    0.697678    2.000000 Uiso  1.0000
 Li3_A1_n350 Li+    0.500000    0.500000    0.698000    2.000000 Uiso  0.2700
 Sc1_A1_n351 Sc3+    0.000000    0.000000    0.700000    2.000000 Uiso  1.0000
 Cl1_A1_n351 Cl1-    0.242100    0.768700    0.700000    2.000000 Uiso  1.0000
 Cl2_A1_n351 Cl1-    0.757900    0.231300    0.700000    2.000000 Uiso  1.0000
 Cl3_A1_n351 Cl1-    0.238700    0.237100    0.700322    2.000000 Uiso  1.0000
 Cl4_A1_n351 Cl1-    0.761300    0.762900    0.700322    2.000000 Uiso  1.0000
 Cl5_A1_n351 Cl1-    0.238700    0.237100    0.699678    2.000000 Uiso  1.0000
 Cl6_A1_n351 Cl1-    0.761300    0.762900    0.699678    2.000000 Uiso  1.0000
 Li3_A1_n351 Li+    0.500000    0.500000    0.700000    2.000000 Uiso  0.2700
 Sc1_A1_n352 Sc3+    0.000000    0.000000    0.702000    2.000000 Uiso  1.0000
 Cl1_A1_n352 Cl1-    0.242100    0.768700    0.702000    2.000000 Uiso  1.0000
 Cl2_A1_n352 Cl1-    0.757900    0.231300    0.702000    2.000000 Uiso  1.0000
 Cl3_A1_n352 Cl1-    0.238700    0.237100    0.702322    2.000000 Uiso  1.0000
 Cl4_A1_n352 Cl1-    0.761300    0.762900    0.702322    2.000000 Uiso  1.0000
 Cl5_A1_n352 Cl1-    0.238700    0.237100    0.701678    2.000000 Uiso  1.0000
 Cl6_A1_n352 Cl1-    0.761300    0.762900    0.701678    2.000000 Uiso  1.0000
 Li3_A1_n352 Li+    0.500000    0.500000    0.702000    2.000000 Uiso  0.2700
 Sc1_A1_n353 Sc3+    0.000000    0.000000    0.704000    2.000000 Uiso  1.0000
 Cl1_A1_n353 Cl1-    0.242100    0.768700    0.704000    2.000000 Uiso  1.0000
 Cl2_A1_n353 Cl1-    0.757900    0.231300    0.704000    2.000000 Uiso  1.0000
 Cl3_A1_n353 Cl1-    0.238700    0.237100    0.704322    2.000000 Uiso  1.0000
 Cl4_A1_n353 Cl1-    0.761300    0.762900    0.704322    2.000000 Uiso  1.0000
 Cl5_A1_n353 Cl1-    0.238700    0.237100    0.703678    2.000000 Uiso  1.0000
 Cl6_A1_n353 Cl1-    0.761300    0.762900    0.703678    2.000000 Uiso  1.0000
 Li3_A1_n353 Li+    0.500000    0.500000    0.704000    2.000000 Uiso  0.2700
 Sc1_A1_n354 Sc3+    0.000000    0.000000    0.706000    2.000000 Uiso  1.0000
 Cl1_A1_n354 Cl1-    0.242100    0.768700    0.706000    2.000000 Uiso  1.0000
 Cl2_A1_n354 Cl1-    0.757900    0.231300    0.706000    2.000000 Uiso  1.0000
 Cl3_A1_n354 Cl1-    0.238700    0.237100    0.706322    2.000000 Uiso  1.0000
 Cl4_A1_n354 Cl1-    0.761300    0.762900    0.706322    2.000000 Uiso  1.0000
 Cl5_A1_n354 Cl1-    0.238700    0.237100    0.705678    2.000000 Uiso  1.0000
 Cl6_A1_n354 Cl1-    0.761300    0.762900    0.705678    2.000000 Uiso  1.0000
 Li3_A1_n354 Li+    0.500000    0.500000    0.706000    2.000000 Uiso  0.2700
 Sc1_A1_n355 Sc3+    0.000000    0.000000    0.708000    2.000000 Uiso  1.0000
 Cl1_A1_n355 Cl1-    0.242100    0.768700    0.708000    2.000000 Uiso  1.0000
 Cl2_A1_n355 Cl1-    0.757900    0.231300    0.708000    2.000000 Uiso  1.0000
 Cl3_A1_n355 Cl1-    0.238700    0.237100    0.708322    2.000000 Uiso  1.0000
 Cl4_A1_n355 Cl1-    0.761300    0.762900    0.708322    2.000000 Uiso  1.0000
 Cl5_A1_n355 Cl1-    0.238700    0.237100    0.707678    2.000000 Uiso  1.0000
 Cl6_A1_n355 Cl1-    0.761300    0.762900    0.707678    2.000000 Uiso  1.0000
 Li3_A1_n355 Li+    0.500000    0.500000    0.708000    2.000000 Uiso  0.2700
 Sc1_A1_n356 Sc3+    0.000000    0.000000    0.710000    2.000000 Uiso  1.0000
 Cl1_A1_n356 Cl1-    0.242100    0.768700    0.710000    2.000000 Uiso  1.0000
 Cl2_A1_n356 Cl1-    0.757900    0.231300    0.710000    2.000000 Uiso  1.0000
 Cl3_A1_n356 Cl1-    0.238700    0.237100    0.710322    2.000000 Uiso  1.0000
 Cl4_A1_n356 Cl1-    0.761300    0.762900    0.710322    2.000000 Uiso  1.0000
 Cl5_A1_n356 Cl1-    0.238700    0.237100    0.709678    2.000000 Uiso  1.0000
 Cl6_A1_n356 Cl1-    0.761300    0.762900    0.709678    2.000000 Uiso  1.0000
 Li3_A1_n356 Li+    0.500000    0.500000    0.710000    2.000000 Uiso  0.2700
 Sc1_A1_n357 Sc3+    0.000000    0.000000    0.712000    2.000000 Uiso  1.0000
 Cl1_A1_n357 Cl1-    0.242100    0.768700    0.712000    2.000000 Uiso  1.0000
 Cl2_A1_n357 Cl1-    0.757900    0.231300    0.712000    2.000000 Uiso  1.0000
 Cl3_A1_n357 Cl1-    0.238700    0.237100    0.712322    2.000000 Uiso  1.0000
 Cl4_A1_n357 Cl1-    0.761300    0.762900    0.712322    2.000000 Uiso  1.0000
 Cl5_A1_n357 Cl1-    0.238700    0.237100    0.711678    2.000000 Uiso  1.0000
 Cl6_A1_n357 Cl1-    0.761300    0.762900    0.711678    2.000000 Uiso  1.0000
 Li3_A1_n357 Li+    0.500000    0.500000    0.712000    2.000000 Uiso  0.2700
 Sc1_A1_n358 Sc3+    0.000000    0.000000    0.714000    2.000000 Uiso  1.0000
 Cl1_A1_n358 Cl1-    0.242100    0.768700    0.714000    2.000000 Uiso  1.0000
 Cl2_A1_n358 Cl1-    0.757900    0.231300    0.714000    2.000000 Uiso  1.0000
 Cl3_A1_n358 Cl1-    0.238700    0.237100    0.714322    2.000000 Uiso  1.0000
 Cl4_A1_n358 Cl1-    0.761300    0.762900    0.714322    2.000000 Uiso  1.0000
 Cl5_A1_n358 Cl1-    0.238700    0.237100    0.713678    2.000000 Uiso  1.0000
 Cl6_A1_n358 Cl1-    0.761300    0.762900    0.713678    2.000000 Uiso  1.0000
 Li3_A1_n358 Li+    0.500000    0.500000    0.714000    2.000000 Uiso  0.2700
 Sc1_A1_n359 Sc3+    0.000000    0.000000    0.716000    2.000000 Uiso  1.0000
 Cl1_A1_n359 Cl1-    0.242100    0.768700    0.716000    2.000000 Uiso  1.0000
 Cl2_A1_n359 Cl1-    0.757900    0.231300    0.716000    2.000000 Uiso  1.0000
 Cl3_A1_n359 Cl1-    0.238700    0.237100    0.716322    2.000000 Uiso  1.0000
 Cl4_A1_n359 Cl1-    0.761300    0.762900    0.716322    2.000000 Uiso  1.0000
 Cl5_A1_n359 Cl1-    0.238700    0.237100    0.715678    2.000000 Uiso  1.0000
 Cl6_A1_n359 Cl1-    0.761300    0.762900    0.715678    2.000000 Uiso  1.0000
 Li3_A1_n359 Li+    0.500000    0.500000    0.716000    2.000000 Uiso  0.2700
 Sc1_A1_n360 Sc3+    0.000000    0.000000    0.718000    2.000000 Uiso  1.0000
 Cl1_A1_n360 Cl1-    0.242100    0.768700    0.718000    2.000000 Uiso  1.0000
 Cl2_A1_n360 Cl1-    0.757900    0.231300    0.718000    2.000000 Uiso  1.0000
 Cl3_A1_n360 Cl1-    0.238700    0.237100    0.718322    2.000000 Uiso  1.0000
 Cl4_A1_n360 Cl1-    0.761300    0.762900    0.718322    2.000000 Uiso  1.0000
 Cl5_A1_n360 Cl1-    0.238700    0.237100    0.717678    2.000000 Uiso  1.0000
 Cl6_A1_n360 Cl1-    0.761300    0.762900    0.717678    2.000000 Uiso  1.0000
 Li3_A1_n360 Li+    0.500000    0.500000    0.718000    2.000000 Uiso  0.2700
 Sc1_A1_n361 Sc3+    0.000000    0.000000    0.720000    2.000000 Uiso  1.0000
 Cl1_A1_n361 Cl1-    0.242100    0.768700    0.720000    2.000000 Uiso  1.0000
 Cl2_A1_n361 Cl1-    0.757900    0.231300    0.720000    2.000000 Uiso  1.0000
 Cl3_A1_n361 Cl1-    0.238700    0.237100    0.720322    2.000000 Uiso  1.0000
 Cl4_A1_n361 Cl1-    0.761300    0.762900    0.720322    2.000000 Uiso  1.0000
 Cl5_A1_n361 Cl1-    0.238700    0.237100    0.719678    2.000000 Uiso  1.0000
 Cl6_A1_n361 Cl1-    0.761300    0.762900    0.719678    2.000000 Uiso  1.0000
 Li3_A1_n361 Li+    0.500000    0.500000    0.720000    2.000000 Uiso  0.2700
 Sc1_A1_n362 Sc3+    0.000000    0.000000    0.722000    2.000000 Uiso  1.0000
 Cl1_A1_n362 Cl1-    0.242100    0.768700    0.722000    2.000000 Uiso  1.0000
 Cl2_A1_n362 Cl1-    0.757900    0.231300    0.722000    2.000000 Uiso  1.0000
 Cl3_A1_n362 Cl1-    0.238700    0.237100    0.722322    2.000000 Uiso  1.0000
 Cl4_A1_n362 Cl1-    0.761300    0.762900    0.722322    2.000000 Uiso  1.0000
 Cl5_A1_n362 Cl1-    0.238700    0.237100    0.721678    2.000000 Uiso  1.0000
 Cl6_A1_n362 Cl1-    0.761300    0.762900    0.721678    2.000000 Uiso  1.0000
 Li3_A1_n362 Li+    0.500000    0.500000    0.722000    2.000000 Uiso  0.2700
 Sc1_A1_n363 Sc3+    0.000000    0.000000    0.724000    2.000000 Uiso  1.0000
 Cl1_A1_n363 Cl1-    0.242100    0.768700    0.724000    2.000000 Uiso  1.0000
 Cl2_A1_n363 Cl1-    0.757900    0.231300    0.724000    2.000000 Uiso  1.0000
 Cl3_A1_n363 Cl1-    0.238700    0.237100    0.724322    2.000000 Uiso  1.0000
 Cl4_A1_n363 Cl1-    0.761300    0.762900    0.724322    2.000000 Uiso  1.0000
 Cl5_A1_n363 Cl1-    0.238700    0.237100    0.723678    2.000000 Uiso  1.0000
 Cl6_A1_n363 Cl1-    0.761300    0.762900    0.723678    2.000000 Uiso  1.0000
 Li3_A1_n363 Li+    0.500000    0.500000    0.724000    2.000000 Uiso  0.2700
 Sc1_A1_n364 Sc3+    0.000000    0.000000    0.726000    2.000000 Uiso  1.0000
 Cl1_A1_n364 Cl1-    0.242100    0.768700    0.726000    2.000000 Uiso  1.0000
 Cl2_A1_n364 Cl1-    0.757900    0.231300    0.726000    2.000000 Uiso  1.0000
 Cl3_A1_n364 Cl1-    0.238700    0.237100    0.726322    2.000000 Uiso  1.0000
 Cl4_A1_n364 Cl1-    0.761300    0.762900    0.726322    2.000000 Uiso  1.0000
 Cl5_A1_n364 Cl1-    0.238700    0.237100    0.725678    2.000000 Uiso  1.0000
 Cl6_A1_n364 Cl1-    0.761300    0.762900    0.725678    2.000000 Uiso  1.0000
 Li3_A1_n364 Li+    0.500000    0.500000    0.726000    2.000000 Uiso  0.2700
 Sc1_A1_n365 Sc3+    0.000000    0.000000    0.728000    2.000000 Uiso  1.0000
 Cl1_A1_n365 Cl1-    0.242100    0.768700    0.728000    2.000000 Uiso  1.0000
 Cl2_A1_n365 Cl1-    0.757900    0.231300    0.728000    2.000000 Uiso  1.0000
 Cl3_A1_n365 Cl1-    0.238700    0.237100    0.728322    2.000000 Uiso  1.0000
 Cl4_A1_n365 Cl1-    0.761300    0.762900    0.728322    2.000000 Uiso  1.0000
 Cl5_A1_n365 Cl1-    0.238700    0.237100    0.727678    2.000000 Uiso  1.0000
 Cl6_A1_n365 Cl1-    0.761300    0.762900    0.727678    2.000000 Uiso  1.0000
 Li3_A1_n365 Li+    0.500000    0.500000    0.728000    2.000000 Uiso  0.2700
 Sc1_A1_n366 Sc3+    0.000000    0.000000    0.730000    2.000000 Uiso  1.0000
 Cl1_A1_n366 Cl1-    0.242100    0.768700    0.730000    2.000000 Uiso  1.0000
 Cl2_A1_n366 Cl1-    0.757900    0.231300    0.730000    2.000000 Uiso  1.0000
 Cl3_A1_n366 Cl1-    0.238700    0.237100    0.730322    2.000000 Uiso  1.0000
 Cl4_A1_n366 Cl1-    0.761300    0.762900    0.730322    2.000000 Uiso  1.0000
 Cl5_A1_n366 Cl1-    0.238700    0.237100    0.729678    2.000000 Uiso  1.0000
 Cl6_A1_n366 Cl1-    0.761300    0.762900    0.729678    2.000000 Uiso  1.0000
 Li3_A1_n366 Li+    0.500000    0.500000    0.730000    2.000000 Uiso  0.2700
 Sc1_A1_n367 Sc3+    0.000000    0.000000    0.732000    2.000000 Uiso  1.0000
 Cl1_A1_n367 Cl1-    0.242100    0.768700    0.732000    2.000000 Uiso  1.0000
 Cl2_A1_n367 Cl1-    0.757900    0.231300    0.732000    2.000000 Uiso  1.0000
 Cl3_A1_n367 Cl1-    0.238700    0.237100    0.732322    2.000000 Uiso  1.0000
 Cl4_A1_n367 Cl1-    0.761300    0.762900    0.732322    2.000000 Uiso  1.0000
 Cl5_A1_n367 Cl1-    0.238700    0.237100    0.731678    2.000000 Uiso  1.0000
 Cl6_A1_n367 Cl1-    0.761300    0.762900    0.731678    2.000000 Uiso  1.0000
 Li3_A1_n367 Li+    0.500000    0.500000    0.732000    2.000000 Uiso  0.2700
 Sc1_A1_n368 Sc3+    0.000000    0.000000    0.734000    2.000000 Uiso  1.0000
 Cl1_A1_n368 Cl1-    0.242100    0.768700    0.734000    2.000000 Uiso  1.0000
 Cl2_A1_n368 Cl1-    0.757900    0.231300    0.734000    2.000000 Uiso  1.0000
 Cl3_A1_n368 Cl1-    0.238700    0.237100    0.734322    2.000000 Uiso  1.0000
 Cl4_A1_n368 Cl1-    0.761300    0.762900    0.734322    2.000000 Uiso  1.0000
 Cl5_A1_n368 Cl1-    0.238700    0.237100    0.733678    2.000000 Uiso  1.0000
 Cl6_A1_n368 Cl1-    0.761300    0.762900    0.733678    2.000000 Uiso  1.0000
 Li3_A1_n368 Li+    0.500000    0.500000    0.734000    2.000000 Uiso  0.2700
 Sc1_A1_n369 Sc3+    0.000000    0.000000    0.736000    2.000000 Uiso  1.0000
 Cl1_A1_n369 Cl1-    0.242100    0.768700    0.736000    2.000000 Uiso  1.0000
 Cl2_A1_n369 Cl1-    0.757900    0.231300    0.736000    2.000000 Uiso  1.0000
 Cl3_A1_n369 Cl1-    0.238700    0.237100    0.736322    2.000000 Uiso  1.0000
 Cl4_A1_n369 Cl1-    0.761300    0.762900    0.736322    2.000000 Uiso  1.0000
 Cl5_A1_n369 Cl1-    0.238700    0.237100    0.735678    2.000000 Uiso  1.0000
 Cl6_A1_n369 Cl1-    0.761300    0.762900    0.735678    2.000000 Uiso  1.0000
 Li3_A1_n369 Li+    0.500000    0.500000    0.736000    2.000000 Uiso  0.2700
 Sc1_A1_n370 Sc3+    0.000000    0.000000    0.738000    2.000000 Uiso  1.0000
 Cl1_A1_n370 Cl1-    0.242100    0.768700    0.738000    2.000000 Uiso  1.0000
 Cl2_A1_n370 Cl1-    0.757900    0.231300    0.738000    2.000000 Uiso  1.0000
 Cl3_A1_n370 Cl1-    0.238700    0.237100    0.738322    2.000000 Uiso  1.0000
 Cl4_A1_n370 Cl1-    0.761300    0.762900    0.738322    2.000000 Uiso  1.0000
 Cl5_A1_n370 Cl1-    0.238700    0.237100    0.737678    2.000000 Uiso  1.0000
 Cl6_A1_n370 Cl1-    0.761300    0.762900    0.737678    2.000000 Uiso  1.0000
 Li3_A1_n370 Li+    0.500000    0.500000    0.738000    2.000000 Uiso  0.2700
 Sc1_A1_n371 Sc3+    0.000000    0.000000    0.740000    2.000000 Uiso  1.0000
 Cl1_A1_n371 Cl1-    0.242100    0.768700    0.740000    2.000000 Uiso  1.0000
 Cl2_A1_n371 Cl1-    0.757900    0.231300    0.740000    2.000000 Uiso  1.0000
 Cl3_A1_n371 Cl1-    0.238700    0.237100    0.740322    2.000000 Uiso  1.0000
 Cl4_A1_n371 Cl1-    0.761300    0.762900    0.740322    2.000000 Uiso  1.0000
 Cl5_A1_n371 Cl1-    0.238700    0.237100    0.739678    2.000000 Uiso  1.0000
 Cl6_A1_n371 Cl1-    0.761300    0.762900    0.739678    2.000000 Uiso  1.0000
 Li3_A1_n371 Li+    0.500000    0.500000    0.740000    2.000000 Uiso  0.2700
 Sc1_A1_n372 Sc3+    0.000000    0.000000    0.742000    2.000000 Uiso  1.0000
 Cl1_A1_n372 Cl1-    0.242100    0.768700    0.742000    2.000000 Uiso  1.0000
 Cl2_A1_n372 Cl1-    0.757900    0.231300    0.742000    2.000000 Uiso  1.0000
 Cl3_A1_n372 Cl1-    0.238700    0.237100    0.742322    2.000000 Uiso  1.0000
 Cl4_A1_n372 Cl1-    0.761300    0.762900    0.742322    2.000000 Uiso  1.0000
 Cl5_A1_n372 Cl1-    0.238700    0.237100    0.741678    2.000000 Uiso  1.0000
 Cl6_A1_n372 Cl1-    0.761300    0.762900    0.741678    2.000000 Uiso  1.0000
 Li3_A1_n372 Li+    0.500000    0.500000    0.742000    2.000000 Uiso  0.2700
 Sc1_A1_n373 Sc3+    0.000000    0.000000    0.744000    2.000000 Uiso  1.0000
 Cl1_A1_n373 Cl1-    0.242100    0.768700    0.744000    2.000000 Uiso  1.0000
 Cl2_A1_n373 Cl1-    0.757900    0.231300    0.744000    2.000000 Uiso  1.0000
 Cl3_A1_n373 Cl1-    0.238700    0.237100    0.744322    2.000000 Uiso  1.0000
 Cl4_A1_n373 Cl1-    0.761300    0.762900    0.744322    2.000000 Uiso  1.0000
 Cl5_A1_n373 Cl1-    0.238700    0.237100    0.743678    2.000000 Uiso  1.0000
 Cl6_A1_n373 Cl1-    0.761300    0.762900    0.743678    2.000000 Uiso  1.0000
 Li3_A1_n373 Li+    0.500000    0.500000    0.744000    2.000000 Uiso  0.2700
 Sc1_A1_n374 Sc3+    0.000000    0.000000    0.746000    2.000000 Uiso  1.0000
 Cl1_A1_n374 Cl1-    0.242100    0.768700    0.746000    2.000000 Uiso  1.0000
 Cl2_A1_n374 Cl1-    0.757900    0.231300    0.746000    2.000000 Uiso  1.0000
 Cl3_A1_n374 Cl1-    0.238700    0.237100    0.746322    2.000000 Uiso  1.0000
 Cl4_A1_n374 Cl1-    0.761300    0.762900    0.746322    2.000000 Uiso  1.0000
 Cl5_A1_n374 Cl1-    0.238700    0.237100    0.745678    2.000000 Uiso  1.0000
 Cl6_A1_n374 Cl1-    0.761300    0.762900    0.745678    2.000000 Uiso  1.0000
 Li3_A1_n374 Li+    0.500000    0.500000    0.746000    2.000000 Uiso  0.2700
 Sc1_A1_n375 Sc3+    0.000000    0.000000    0.748000    2.000000 Uiso  1.0000
 Cl1_A1_n375 Cl1-    0.242100    0.768700    0.748000    2.000000 Uiso  1.0000
 Cl2_A1_n375 Cl1-    0.757900    0.231300    0.748000    2.000000 Uiso  1.0000
 Cl3_A1_n375 Cl1-    0.238700    0.237100    0.748322    2.000000 Uiso  1.0000
 Cl4_A1_n375 Cl1-    0.761300    0.762900    0.748322    2.000000 Uiso  1.0000
 Cl5_A1_n375 Cl1-    0.238700    0.237100    0.747678    2.000000 Uiso  1.0000
 Cl6_A1_n375 Cl1-    0.761300    0.762900    0.747678    2.000000 Uiso  1.0000
 Li3_A1_n375 Li+    0.500000    0.500000    0.748000    2.000000 Uiso  0.2700
 Sc1_A1_n376 Sc3+    0.000000    0.000000    0.750000    2.000000 Uiso  1.0000
 Cl1_A1_n376 Cl1-    0.242100    0.768700    0.750000    2.000000 Uiso  1.0000
 Cl2_A1_n376 Cl1-    0.757900    0.231300    0.750000    2.000000 Uiso  1.0000
 Cl3_A1_n376 Cl1-    0.238700    0.237100    0.750322    2.000000 Uiso  1.0000
 Cl4_A1_n376 Cl1-    0.761300    0.762900    0.750322    2.000000 Uiso  1.0000
 Cl5_A1_n376 Cl1-    0.238700    0.237100    0.749678    2.000000 Uiso  1.0000
 Cl6_A1_n376 Cl1-    0.761300    0.762900    0.749678    2.000000 Uiso  1.0000
 Li3_A1_n376 Li+    0.500000    0.500000    0.750000    2.000000 Uiso  0.2700
 Sc1_A1_n377 Sc3+    0.000000    0.000000    0.752000    2.000000 Uiso  1.0000
 Cl1_A1_n377 Cl1-    0.242100    0.768700    0.752000    2.000000 Uiso  1.0000
 Cl2_A1_n377 Cl1-    0.757900    0.231300    0.752000    2.000000 Uiso  1.0000
 Cl3_A1_n377 Cl1-    0.238700    0.237100    0.752322    2.000000 Uiso  1.0000
 Cl4_A1_n377 Cl1-    0.761300    0.762900    0.752322    2.000000 Uiso  1.0000
 Cl5_A1_n377 Cl1-    0.238700    0.237100    0.751678    2.000000 Uiso  1.0000
 Cl6_A1_n377 Cl1-    0.761300    0.762900    0.751678    2.000000 Uiso  1.0000
 Li3_A1_n377 Li+    0.500000    0.500000    0.752000    2.000000 Uiso  0.2700
 Sc1_A1_n378 Sc3+    0.000000    0.000000    0.754000    2.000000 Uiso  1.0000
 Cl1_A1_n378 Cl1-    0.242100    0.768700    0.754000    2.000000 Uiso  1.0000
 Cl2_A1_n378 Cl1-    0.757900    0.231300    0.754000    2.000000 Uiso  1.0000
 Cl3_A1_n378 Cl1-    0.238700    0.237100    0.754322    2.000000 Uiso  1.0000
 Cl4_A1_n378 Cl1-    0.761300    0.762900    0.754322    2.000000 Uiso  1.0000
 Cl5_A1_n378 Cl1-    0.238700    0.237100    0.753678    2.000000 Uiso  1.0000
 Cl6_A1_n378 Cl1-    0.761300    0.762900    0.753678    2.000000 Uiso  1.0000
 Li3_A1_n378 Li+    0.500000    0.500000    0.754000    2.000000 Uiso  0.2700
 Sc1_A1_n379 Sc3+    0.000000    0.000000    0.756000    2.000000 Uiso  1.0000
 Cl1_A1_n379 Cl1-    0.242100    0.768700    0.756000    2.000000 Uiso  1.0000
 Cl2_A1_n379 Cl1-    0.757900    0.231300    0.756000    2.000000 Uiso  1.0000
 Cl3_A1_n379 Cl1-    0.238700    0.237100    0.756322    2.000000 Uiso  1.0000
 Cl4_A1_n379 Cl1-    0.761300    0.762900    0.756322    2.000000 Uiso  1.0000
 Cl5_A1_n379 Cl1-    0.238700    0.237100    0.755678    2.000000 Uiso  1.0000
 Cl6_A1_n379 Cl1-    0.761300    0.762900    0.755678    2.000000 Uiso  1.0000
 Li3_A1_n379 Li+    0.500000    0.500000    0.756000    2.000000 Uiso  0.2700
 Sc1_A1_n380 Sc3+    0.000000    0.000000    0.758000    2.000000 Uiso  1.0000
 Cl1_A1_n380 Cl1-    0.242100    0.768700    0.758000    2.000000 Uiso  1.0000
 Cl2_A1_n380 Cl1-    0.757900    0.231300    0.758000    2.000000 Uiso  1.0000
 Cl3_A1_n380 Cl1-    0.238700    0.237100    0.758322    2.000000 Uiso  1.0000
 Cl4_A1_n380 Cl1-    0.761300    0.762900    0.758322    2.000000 Uiso  1.0000
 Cl5_A1_n380 Cl1-    0.238700    0.237100    0.757678    2.000000 Uiso  1.0000
 Cl6_A1_n380 Cl1-    0.761300    0.762900    0.757678    2.000000 Uiso  1.0000
 Li3_A1_n380 Li+    0.500000    0.500000    0.758000    2.000000 Uiso  0.2700
 Sc1_A1_n381 Sc3+    0.000000    0.000000    0.760000    2.000000 Uiso  1.0000
 Cl1_A1_n381 Cl1-    0.242100    0.768700    0.760000    2.000000 Uiso  1.0000
 Cl2_A1_n381 Cl1-    0.757900    0.231300    0.760000    2.000000 Uiso  1.0000
 Cl3_A1_n381 Cl1-    0.238700    0.237100    0.760322    2.000000 Uiso  1.0000
 Cl4_A1_n381 Cl1-    0.761300    0.762900    0.760322    2.000000 Uiso  1.0000
 Cl5_A1_n381 Cl1-    0.238700    0.237100    0.759678    2.000000 Uiso  1.0000
 Cl6_A1_n381 Cl1-    0.761300    0.762900    0.759678    2.000000 Uiso  1.0000
 Li3_A1_n381 Li+    0.500000    0.500000    0.760000    2.000000 Uiso  0.2700
 Sc1_A1_n382 Sc3+    0.000000    0.000000    0.762000    2.000000 Uiso  1.0000
 Cl1_A1_n382 Cl1-    0.242100    0.768700    0.762000    2.000000 Uiso  1.0000
 Cl2_A1_n382 Cl1-    0.757900    0.231300    0.762000    2.000000 Uiso  1.0000
 Cl3_A1_n382 Cl1-    0.238700    0.237100    0.762322    2.000000 Uiso  1.0000
 Cl4_A1_n382 Cl1-    0.761300    0.762900    0.762322    2.000000 Uiso  1.0000
 Cl5_A1_n382 Cl1-    0.238700    0.237100    0.761678    2.000000 Uiso  1.0000
 Cl6_A1_n382 Cl1-    0.761300    0.762900    0.761678    2.000000 Uiso  1.0000
 Li3_A1_n382 Li+    0.500000    0.500000    0.762000    2.000000 Uiso  0.2700
 Sc1_A1_n383 Sc3+    0.000000    0.000000    0.764000    2.000000 Uiso  1.0000
 Cl1_A1_n383 Cl1-    0.242100    0.768700    0.764000    2.000000 Uiso  1.0000
 Cl2_A1_n383 Cl1-    0.757900    0.231300    0.764000    2.000000 Uiso  1.0000
 Cl3_A1_n383 Cl1-    0.238700    0.237100    0.764322    2.000000 Uiso  1.0000
 Cl4_A1_n383 Cl1-    0.761300    0.762900    0.764322    2.000000 Uiso  1.0000
 Cl5_A1_n383 Cl1-    0.238700    0.237100    0.763678    2.000000 Uiso  1.0000
 Cl6_A1_n383 Cl1-    0.761300    0.762900    0.763678    2.000000 Uiso  1.0000
 Li3_A1_n383 Li+    0.500000    0.500000    0.764000    2.000000 Uiso  0.2700
 Sc1_A1_n384 Sc3+    0.000000    0.000000    0.766000    2.000000 Uiso  1.0000
 Cl1_A1_n384 Cl1-    0.242100    0.768700    0.766000    2.000000 Uiso  1.0000
 Cl2_A1_n384 Cl1-    0.757900    0.231300    0.766000    2.000000 Uiso  1.0000
 Cl3_A1_n384 Cl1-    0.238700    0.237100    0.766322    2.000000 Uiso  1.0000
 Cl4_A1_n384 Cl1-    0.761300    0.762900    0.766322    2.000000 Uiso  1.0000
 Cl5_A1_n384 Cl1-    0.238700    0.237100    0.765678    2.000000 Uiso  1.0000
 Cl6_A1_n384 Cl1-    0.761300    0.762900    0.765678    2.000000 Uiso  1.0000
 Li3_A1_n384 Li+    0.500000    0.500000    0.766000    2.000000 Uiso  0.2700
 Sc1_A1_n385 Sc3+    0.000000    0.000000    0.768000    2.000000 Uiso  1.0000
 Cl1_A1_n385 Cl1-    0.242100    0.768700    0.768000    2.000000 Uiso  1.0000
 Cl2_A1_n385 Cl1-    0.757900    0.231300    0.768000    2.000000 Uiso  1.0000
 Cl3_A1_n385 Cl1-    0.238700    0.237100    0.768322    2.000000 Uiso  1.0000
 Cl4_A1_n385 Cl1-    0.761300    0.762900    0.768322    2.000000 Uiso  1.0000
 Cl5_A1_n385 Cl1-    0.238700    0.237100    0.767678    2.000000 Uiso  1.0000
 Cl6_A1_n385 Cl1-    0.761300    0.762900    0.767678    2.000000 Uiso  1.0000
 Li3_A1_n385 Li+    0.500000    0.500000    0.768000    2.000000 Uiso  0.2700
 Sc1_A1_n386 Sc3+    0.000000    0.000000    0.770000    2.000000 Uiso  1.0000
 Cl1_A1_n386 Cl1-    0.242100    0.768700    0.770000    2.000000 Uiso  1.0000
 Cl2_A1_n386 Cl1-    0.757900    0.231300    0.770000    2.000000 Uiso  1.0000
 Cl3_A1_n386 Cl1-    0.238700    0.237100    0.770322    2.000000 Uiso  1.0000
 Cl4_A1_n386 Cl1-    0.761300    0.762900    0.770322    2.000000 Uiso  1.0000
 Cl5_A1_n386 Cl1-    0.238700    0.237100    0.769678    2.000000 Uiso  1.0000
 Cl6_A1_n386 Cl1-    0.761300    0.762900    0.769678    2.000000 Uiso  1.0000
 Li3_A1_n386 Li+    0.500000    0.500000    0.770000    2.000000 Uiso  0.2700
 Sc1_A1_n387 Sc3+    0.000000    0.000000    0.772000    2.000000 Uiso  1.0000
 Cl1_A1_n387 Cl1-    0.242100    0.768700    0.772000    2.000000 Uiso  1.0000
 Cl2_A1_n387 Cl1-    0.757900    0.231300    0.772000    2.000000 Uiso  1.0000
 Cl3_A1_n387 Cl1-    0.238700    0.237100    0.772322    2.000000 Uiso  1.0000
 Cl4_A1_n387 Cl1-    0.761300    0.762900    0.772322    2.000000 Uiso  1.0000
 Cl5_A1_n387 Cl1-    0.238700    0.237100    0.771678    2.000000 Uiso  1.0000
 Cl6_A1_n387 Cl1-    0.761300    0.762900    0.771678    2.000000 Uiso  1.0000
 Li3_A1_n387 Li+    0.500000    0.500000    0.772000    2.000000 Uiso  0.2700
 Sc1_A1_n388 Sc3+    0.000000    0.000000    0.774000    2.000000 Uiso  1.0000
 Cl1_A1_n388 Cl1-    0.242100    0.768700    0.774000    2.000000 Uiso  1.0000
 Cl2_A1_n388 Cl1-    0.757900    0.231300    0.774000    2.000000 Uiso  1.0000
 Cl3_A1_n388 Cl1-    0.238700    0.237100    0.774322    2.000000 Uiso  1.0000
 Cl4_A1_n388 Cl1-    0.761300    0.762900    0.774322    2.000000 Uiso  1.0000
 Cl5_A1_n388 Cl1-    0.238700    0.237100    0.773678    2.000000 Uiso  1.0000
 Cl6_A1_n388 Cl1-    0.761300    0.762900    0.773678    2.000000 Uiso  1.0000
 Li3_A1_n388 Li+    0.500000    0.500000    0.774000    2.000000 Uiso  0.2700
 Sc1_A1_n389 Sc3+    0.000000    0.000000    0.776000    2.000000 Uiso  1.0000
 Cl1_A1_n389 Cl1-    0.242100    0.768700    0.776000    2.000000 Uiso  1.0000
 Cl2_A1_n389 Cl1-    0.757900    0.231300    0.776000    2.000000 Uiso  1.0000
 Cl3_A1_n389 Cl1-    0.238700    0.237100    0.776322    2.000000 Uiso  1.0000
 Cl4_A1_n389 Cl1-    0.761300    0.762900    0.776322    2.000000 Uiso  1.0000
 Cl5_A1_n389 Cl1-    0.238700    0.237100    0.775678    2.000000 Uiso  1.0000
 Cl6_A1_n389 Cl1-    0.761300    0.762900    0.775678    2.000000 Uiso  1.0000
 Li3_A1_n389 Li+    0.500000    0.500000    0.776000    2.000000 Uiso  0.2700
 Sc1_A1_n390 Sc3+    0.000000    0.000000    0.778000    2.000000 Uiso  1.0000
 Cl1_A1_n390 Cl1-    0.242100    0.768700    0.778000    2.000000 Uiso  1.0000
 Cl2_A1_n390 Cl1-    0.757900    0.231300    0.778000    2.000000 Uiso  1.0000
 Cl3_A1_n390 Cl1-    0.238700    0.237100    0.778322    2.000000 Uiso  1.0000
 Cl4_A1_n390 Cl1-    0.761300    0.762900    0.778322    2.000000 Uiso  1.0000
 Cl5_A1_n390 Cl1-    0.238700    0.237100    0.777678    2.000000 Uiso  1.0000
 Cl6_A1_n390 Cl1-    0.761300    0.762900    0.777678    2.000000 Uiso  1.0000
 Li3_A1_n390 Li+    0.500000    0.500000    0.778000    2.000000 Uiso  0.2700
 Sc1_A1_n391 Sc3+    0.000000    0.000000    0.780000    2.000000 Uiso  1.0000
 Cl1_A1_n391 Cl1-    0.242100    0.768700    0.780000    2.000000 Uiso  1.0000
 Cl2_A1_n391 Cl1-    0.757900    0.231300    0.780000    2.000000 Uiso  1.0000
 Cl3_A1_n391 Cl1-    0.238700    0.237100    0.780322    2.000000 Uiso  1.0000
 Cl4_A1_n391 Cl1-    0.761300    0.762900    0.780322    2.000000 Uiso  1.0000
 Cl5_A1_n391 Cl1-    0.238700    0.237100    0.779678    2.000000 Uiso  1.0000
 Cl6_A1_n391 Cl1-    0.761300    0.762900    0.779678    2.000000 Uiso  1.0000
 Li3_A1_n391 Li+    0.500000    0.500000    0.780000    2.000000 Uiso  0.2700
 Sc1_A1_n392 Sc3+    0.000000    0.000000    0.782000    2.000000 Uiso  1.0000
 Cl1_A1_n392 Cl1-    0.242100    0.768700    0.782000    2.000000 Uiso  1.0000
 Cl2_A1_n392 Cl1-    0.757900    0.231300    0.782000    2.000000 Uiso  1.0000
 Cl3_A1_n392 Cl1-    0.238700    0.237100    0.782322    2.000000 Uiso  1.0000
 Cl4_A1_n392 Cl1-    0.761300    0.762900    0.782322    2.000000 Uiso  1.0000
 Cl5_A1_n392 Cl1-    0.238700    0.237100    0.781678    2.000000 Uiso  1.0000
 Cl6_A1_n392 Cl1-    0.761300    0.762900    0.781678    2.000000 Uiso  1.0000
 Li3_A1_n392 Li+    0.500000    0.500000    0.782000    2.000000 Uiso  0.2700
 Sc1_A1_n393 Sc3+    0.000000    0.000000    0.784000    2.000000 Uiso  1.0000
 Cl1_A1_n393 Cl1-    0.242100    0.768700    0.784000    2.000000 Uiso  1.0000
 Cl2_A1_n393 Cl1-    0.757900    0.231300    0.784000    2.000000 Uiso  1.0000
 Cl3_A1_n393 Cl1-    0.238700    0.237100    0.784322    2.000000 Uiso  1.0000
 Cl4_A1_n393 Cl1-    0.761300    0.762900    0.784322    2.000000 Uiso  1.0000
 Cl5_A1_n393 Cl1-    0.238700    0.237100    0.783678    2.000000 Uiso  1.0000
 Cl6_A1_n393 Cl1-    0.761300    0.762900    0.783678    2.000000 Uiso  1.0000
 Li3_A1_n393 Li+    0.500000    0.500000    0.784000    2.000000 Uiso  0.2700
 Sc1_A1_n394 Sc3+    0.000000    0.000000    0.786000    2.000000 Uiso  1.0000
 Cl1_A1_n394 Cl1-    0.242100    0.768700    0.786000    2.000000 Uiso  1.0000
 Cl2_A1_n394 Cl1-    0.757900    0.231300    0.786000    2.000000 Uiso  1.0000
 Cl3_A1_n394 Cl1-    0.238700    0.237100    0.786322    2.000000 Uiso  1.0000
 Cl4_A1_n394 Cl1-    0.761300    0.762900    0.786322    2.000000 Uiso  1.0000
 Cl5_A1_n394 Cl1-    0.238700    0.237100    0.785678    2.000000 Uiso  1.0000
 Cl6_A1_n394 Cl1-    0.761300    0.762900    0.785678    2.000000 Uiso  1.0000
 Li3_A1_n394 Li+    0.500000    0.500000    0.786000    2.000000 Uiso  0.2700
 Sc1_A1_n395 Sc3+    0.000000    0.000000    0.788000    2.000000 Uiso  1.0000
 Cl1_A1_n395 Cl1-    0.242100    0.768700    0.788000    2.000000 Uiso  1.0000
 Cl2_A1_n395 Cl1-    0.757900    0.231300    0.788000    2.000000 Uiso  1.0000
 Cl3_A1_n395 Cl1-    0.238700    0.237100    0.788322    2.000000 Uiso  1.0000
 Cl4_A1_n395 Cl1-    0.761300    0.762900    0.788322    2.000000 Uiso  1.0000
 Cl5_A1_n395 Cl1-    0.238700    0.237100    0.787678    2.000000 Uiso  1.0000
 Cl6_A1_n395 Cl1-    0.761300    0.762900    0.787678    2.000000 Uiso  1.0000
 Li3_A1_n395 Li+    0.500000    0.500000    0.788000    2.000000 Uiso  0.2700
 Sc1_A1_n396 Sc3+    0.000000    0.000000    0.790000    2.000000 Uiso  1.0000
 Cl1_A1_n396 Cl1-    0.242100    0.768700    0.790000    2.000000 Uiso  1.0000
 Cl2_A1_n396 Cl1-    0.757900    0.231300    0.790000    2.000000 Uiso  1.0000
 Cl3_A1_n396 Cl1-    0.238700    0.237100    0.790322    2.000000 Uiso  1.0000
 Cl4_A1_n396 Cl1-    0.761300    0.762900    0.790322    2.000000 Uiso  1.0000
 Cl5_A1_n396 Cl1-    0.238700    0.237100    0.789678    2.000000 Uiso  1.0000
 Cl6_A1_n396 Cl1-    0.761300    0.762900    0.789678    2.000000 Uiso  1.0000
 Li3_A1_n396 Li+    0.500000    0.500000    0.790000    2.000000 Uiso  0.2700
 Sc1_A1_n397 Sc3+    0.000000    0.000000    0.792000    2.000000 Uiso  1.0000
 Cl1_A1_n397 Cl1-    0.242100    0.768700    0.792000    2.000000 Uiso  1.0000
 Cl2_A1_n397 Cl1-    0.757900    0.231300    0.792000    2.000000 Uiso  1.0000
 Cl3_A1_n397 Cl1-    0.238700    0.237100    0.792322    2.000000 Uiso  1.0000
 Cl4_A1_n397 Cl1-    0.761300    0.762900    0.792322    2.000000 Uiso  1.0000
 Cl5_A1_n397 Cl1-    0.238700    0.237100    0.791678    2.000000 Uiso  1.0000
 Cl6_A1_n397 Cl1-    0.761300    0.762900    0.791678    2.000000 Uiso  1.0000
 Li3_A1_n397 Li+    0.500000    0.500000    0.792000    2.000000 Uiso  0.2700
 Sc1_A1_n398 Sc3+    0.000000    0.000000    0.794000    2.000000 Uiso  1.0000
 Cl1_A1_n398 Cl1-    0.242100    0.768700    0.794000    2.000000 Uiso  1.0000
 Cl2_A1_n398 Cl1-    0.757900    0.231300    0.794000    2.000000 Uiso  1.0000
 Cl3_A1_n398 Cl1-    0.238700    0.237100    0.794322    2.000000 Uiso  1.0000
 Cl4_A1_n398 Cl1-    0.761300    0.762900    0.794322    2.000000 Uiso  1.0000
 Cl5_A1_n398 Cl1-    0.238700    0.237100    0.793678    2.000000 Uiso  1.0000
 Cl6_A1_n398 Cl1-    0.761300    0.762900    0.793678    2.000000 Uiso  1.0000
 Li3_A1_n398 Li+    0.500000    0.500000    0.794000    2.000000 Uiso  0.2700
 Sc1_A1_n399 Sc3+    0.000000    0.000000    0.796000    2.000000 Uiso  1.0000
 Cl1_A1_n399 Cl1-    0.242100    0.768700    0.796000    2.000000 Uiso  1.0000
 Cl2_A1_n399 Cl1-    0.757900    0.231300    0.796000    2.000000 Uiso  1.0000
 Cl3_A1_n399 Cl1-    0.238700    0.237100    0.796322    2.000000 Uiso  1.0000
 Cl4_A1_n399 Cl1-    0.761300    0.762900    0.796322    2.000000 Uiso  1.0000
 Cl5_A1_n399 Cl1-    0.238700    0.237100    0.795678    2.000000 Uiso  1.0000
 Cl6_A1_n399 Cl1-    0.761300    0.762900    0.795678    2.000000 Uiso  1.0000
 Li3_A1_n399 Li+    0.500000    0.500000    0.796000    2.000000 Uiso  0.2700
 Sc1_A1_n400 Sc3+    0.000000    0.000000    0.798000    2.000000 Uiso  1.0000
 Cl1_A1_n400 Cl1-    0.242100    0.768700    0.798000    2.000000 Uiso  1.0000
 Cl2_A1_n400 Cl1-    0.757900    0.231300    0.798000    2.000000 Uiso  1.0000
 Cl3_A1_n400 Cl1-    0.238700    0.237100    0.798322    2.000000 Uiso  1.0000
 Cl4_A1_n400 Cl1-    0.761300    0.762900    0.798322    2.000000 Uiso  1.0000
 Cl5_A1_n400 Cl1-    0.238700    0.237100    0.797678    2.000000 Uiso  1.0000
 Cl6_A1_n400 Cl1-    0.761300    0.762900    0.797678    2.000000 Uiso  1.0000
 Li3_A1_n400 Li+    0.500000    0.500000    0.798000    2.000000 Uiso  0.2700
 Sc1_A1_n401 Sc3+    0.000000    0.000000    0.800000    2.000000 Uiso  1.0000
 Cl1_A1_n401 Cl1-    0.242100    0.768700    0.800000    2.000000 Uiso  1.0000
 Cl2_A1_n401 Cl1-    0.757900    0.231300    0.800000    2.000000 Uiso  1.0000
 Cl3_A1_n401 Cl1-    0.238700    0.237100    0.800322    2.000000 Uiso  1.0000
 Cl4_A1_n401 Cl1-    0.761300    0.762900    0.800322    2.000000 Uiso  1.0000
 Cl5_A1_n401 Cl1-    0.238700    0.237100    0.799678    2.000000 Uiso  1.0000
 Cl6_A1_n401 Cl1-    0.761300    0.762900    0.799678    2.000000 Uiso  1.0000
 Li3_A1_n401 Li+    0.500000    0.500000    0.800000    2.000000 Uiso  0.2700
 Sc1_A1_n402 Sc3+    0.000000    0.000000    0.802000    2.000000 Uiso  1.0000
 Cl1_A1_n402 Cl1-    0.242100    0.768700    0.802000    2.000000 Uiso  1.0000
 Cl2_A1_n402 Cl1-    0.757900    0.231300    0.802000    2.000000 Uiso  1.0000
 Cl3_A1_n402 Cl1-    0.238700    0.237100    0.802322    2.000000 Uiso  1.0000
 Cl4_A1_n402 Cl1-    0.761300    0.762900    0.802322    2.000000 Uiso  1.0000
 Cl5_A1_n402 Cl1-    0.238700    0.237100    0.801678    2.000000 Uiso  1.0000
 Cl6_A1_n402 Cl1-    0.761300    0.762900    0.801678    2.000000 Uiso  1.0000
 Li3_A1_n402 Li+    0.500000    0.500000    0.802000    2.000000 Uiso  0.2700
 Sc1_A1_n403 Sc3+    0.000000    0.000000    0.804000    2.000000 Uiso  1.0000
 Cl1_A1_n403 Cl1-    0.242100    0.768700    0.804000    2.000000 Uiso  1.0000
 Cl2_A1_n403 Cl1-    0.757900    0.231300    0.804000    2.000000 Uiso  1.0000
 Cl3_A1_n403 Cl1-    0.238700    0.237100    0.804322    2.000000 Uiso  1.0000
 Cl4_A1_n403 Cl1-    0.761300    0.762900    0.804322    2.000000 Uiso  1.0000
 Cl5_A1_n403 Cl1-    0.238700    0.237100    0.803678    2.000000 Uiso  1.0000
 Cl6_A1_n403 Cl1-    0.761300    0.762900    0.803678    2.000000 Uiso  1.0000
 Li3_A1_n403 Li+    0.500000    0.500000    0.804000    2.000000 Uiso  0.2700
 Sc1_A1_n404 Sc3+    0.000000    0.000000    0.806000    2.000000 Uiso  1.0000
 Cl1_A1_n404 Cl1-    0.242100    0.768700    0.806000    2.000000 Uiso  1.0000
 Cl2_A1_n404 Cl1-    0.757900    0.231300    0.806000    2.000000 Uiso  1.0000
 Cl3_A1_n404 Cl1-    0.238700    0.237100    0.806322    2.000000 Uiso  1.0000
 Cl4_A1_n404 Cl1-    0.761300    0.762900    0.806322    2.000000 Uiso  1.0000
 Cl5_A1_n404 Cl1-    0.238700    0.237100    0.805678    2.000000 Uiso  1.0000
 Cl6_A1_n404 Cl1-    0.761300    0.762900    0.805678    2.000000 Uiso  1.0000
 Li3_A1_n404 Li+    0.500000    0.500000    0.806000    2.000000 Uiso  0.2700
 Sc1_A1_n405 Sc3+    0.000000    0.000000    0.808000    2.000000 Uiso  1.0000
 Cl1_A1_n405 Cl1-    0.242100    0.768700    0.808000    2.000000 Uiso  1.0000
 Cl2_A1_n405 Cl1-    0.757900    0.231300    0.808000    2.000000 Uiso  1.0000
 Cl3_A1_n405 Cl1-    0.238700    0.237100    0.808322    2.000000 Uiso  1.0000
 Cl4_A1_n405 Cl1-    0.761300    0.762900    0.808322    2.000000 Uiso  1.0000
 Cl5_A1_n405 Cl1-    0.238700    0.237100    0.807678    2.000000 Uiso  1.0000
 Cl6_A1_n405 Cl1-    0.761300    0.762900    0.807678    2.000000 Uiso  1.0000
 Li3_A1_n405 Li+    0.500000    0.500000    0.808000    2.000000 Uiso  0.2700
 Sc1_A1_n406 Sc3+    0.000000    0.000000    0.810000    2.000000 Uiso  1.0000
 Cl1_A1_n406 Cl1-    0.242100    0.768700    0.810000    2.000000 Uiso  1.0000
 Cl2_A1_n406 Cl1-    0.757900    0.231300    0.810000    2.000000 Uiso  1.0000
 Cl3_A1_n406 Cl1-    0.238700    0.237100    0.810322    2.000000 Uiso  1.0000
 Cl4_A1_n406 Cl1-    0.761300    0.762900    0.810322    2.000000 Uiso  1.0000
 Cl5_A1_n406 Cl1-    0.238700    0.237100    0.809678    2.000000 Uiso  1.0000
 Cl6_A1_n406 Cl1-    0.761300    0.762900    0.809678    2.000000 Uiso  1.0000
 Li3_A1_n406 Li+    0.500000    0.500000    0.810000    2.000000 Uiso  0.2700
 Sc1_A1_n407 Sc3+    0.000000    0.000000    0.812000    2.000000 Uiso  1.0000
 Cl1_A1_n407 Cl1-    0.242100    0.768700    0.812000    2.000000 Uiso  1.0000
 Cl2_A1_n407 Cl1-    0.757900    0.231300    0.812000    2.000000 Uiso  1.0000
 Cl3_A1_n407 Cl1-    0.238700    0.237100    0.812322    2.000000 Uiso  1.0000
 Cl4_A1_n407 Cl1-    0.761300    0.762900    0.812322    2.000000 Uiso  1.0000
 Cl5_A1_n407 Cl1-    0.238700    0.237100    0.811678    2.000000 Uiso  1.0000
 Cl6_A1_n407 Cl1-    0.761300    0.762900    0.811678    2.000000 Uiso  1.0000
 Li3_A1_n407 Li+    0.500000    0.500000    0.812000    2.000000 Uiso  0.2700
 Sc1_A1_n408 Sc3+    0.000000    0.000000    0.814000    2.000000 Uiso  1.0000
 Cl1_A1_n408 Cl1-    0.242100    0.768700    0.814000    2.000000 Uiso  1.0000
 Cl2_A1_n408 Cl1-    0.757900    0.231300    0.814000    2.000000 Uiso  1.0000
 Cl3_A1_n408 Cl1-    0.238700    0.237100    0.814322    2.000000 Uiso  1.0000
 Cl4_A1_n408 Cl1-    0.761300    0.762900    0.814322    2.000000 Uiso  1.0000
 Cl5_A1_n408 Cl1-    0.238700    0.237100    0.813678    2.000000 Uiso  1.0000
 Cl6_A1_n408 Cl1-    0.761300    0.762900    0.813678    2.000000 Uiso  1.0000
 Li3_A1_n408 Li+    0.500000    0.500000    0.814000    2.000000 Uiso  0.2700
 Sc1_A1_n409 Sc3+    0.000000    0.000000    0.816000    2.000000 Uiso  1.0000
 Cl1_A1_n409 Cl1-    0.242100    0.768700    0.816000    2.000000 Uiso  1.0000
 Cl2_A1_n409 Cl1-    0.757900    0.231300    0.816000    2.000000 Uiso  1.0000
 Cl3_A1_n409 Cl1-    0.238700    0.237100    0.816322    2.000000 Uiso  1.0000
 Cl4_A1_n409 Cl1-    0.761300    0.762900    0.816322    2.000000 Uiso  1.0000
 Cl5_A1_n409 Cl1-    0.238700    0.237100    0.815678    2.000000 Uiso  1.0000
 Cl6_A1_n409 Cl1-    0.761300    0.762900    0.815678    2.000000 Uiso  1.0000
 Li3_A1_n409 Li+    0.500000    0.500000    0.816000    2.000000 Uiso  0.2700
 Sc1_A1_n410 Sc3+    0.000000    0.000000    0.818000    2.000000 Uiso  1.0000
 Cl1_A1_n410 Cl1-    0.242100    0.768700    0.818000    2.000000 Uiso  1.0000
 Cl2_A1_n410 Cl1-    0.757900    0.231300    0.818000    2.000000 Uiso  1.0000
 Cl3_A1_n410 Cl1-    0.238700    0.237100    0.818322    2.000000 Uiso  1.0000
 Cl4_A1_n410 Cl1-    0.761300    0.762900    0.818322    2.000000 Uiso  1.0000
 Cl5_A1_n410 Cl1-    0.238700    0.237100    0.817678    2.000000 Uiso  1.0000
 Cl6_A1_n410 Cl1-    0.761300    0.762900    0.817678    2.000000 Uiso  1.0000
 Li3_A1_n410 Li+    0.500000    0.500000    0.818000    2.000000 Uiso  0.2700
 Sc1_A1_n411 Sc3+    0.000000    0.000000    0.820000    2.000000 Uiso  1.0000
 Cl1_A1_n411 Cl1-    0.242100    0.768700    0.820000    2.000000 Uiso  1.0000
 Cl2_A1_n411 Cl1-    0.757900    0.231300    0.820000    2.000000 Uiso  1.0000
 Cl3_A1_n411 Cl1-    0.238700    0.237100    0.820322    2.000000 Uiso  1.0000
 Cl4_A1_n411 Cl1-    0.761300    0.762900    0.820322    2.000000 Uiso  1.0000
 Cl5_A1_n411 Cl1-    0.238700    0.237100    0.819678    2.000000 Uiso  1.0000
 Cl6_A1_n411 Cl1-    0.761300    0.762900    0.819678    2.000000 Uiso  1.0000
 Li3_A1_n411 Li+    0.500000    0.500000    0.820000    2.000000 Uiso  0.2700
 Sc1_A1_n412 Sc3+    0.000000    0.000000    0.822000    2.000000 Uiso  1.0000
 Cl1_A1_n412 Cl1-    0.242100    0.768700    0.822000    2.000000 Uiso  1.0000
 Cl2_A1_n412 Cl1-    0.757900    0.231300    0.822000    2.000000 Uiso  1.0000
 Cl3_A1_n412 Cl1-    0.238700    0.237100    0.822322    2.000000 Uiso  1.0000
 Cl4_A1_n412 Cl1-    0.761300    0.762900    0.822322    2.000000 Uiso  1.0000
 Cl5_A1_n412 Cl1-    0.238700    0.237100    0.821678    2.000000 Uiso  1.0000
 Cl6_A1_n412 Cl1-    0.761300    0.762900    0.821678    2.000000 Uiso  1.0000
 Li3_A1_n412 Li+    0.500000    0.500000    0.822000    2.000000 Uiso  0.2700
 Sc1_A1_n413 Sc3+    0.000000    0.000000    0.824000    2.000000 Uiso  1.0000
 Cl1_A1_n413 Cl1-    0.242100    0.768700    0.824000    2.000000 Uiso  1.0000
 Cl2_A1_n413 Cl1-    0.757900    0.231300    0.824000    2.000000 Uiso  1.0000
 Cl3_A1_n413 Cl1-    0.238700    0.237100    0.824322    2.000000 Uiso  1.0000
 Cl4_A1_n413 Cl1-    0.761300    0.762900    0.824322    2.000000 Uiso  1.0000
 Cl5_A1_n413 Cl1-    0.238700    0.237100    0.823678    2.000000 Uiso  1.0000
 Cl6_A1_n413 Cl1-    0.761300    0.762900    0.823678    2.000000 Uiso  1.0000
 Li3_A1_n413 Li+    0.500000    0.500000    0.824000    2.000000 Uiso  0.2700
 Sc1_A1_n414 Sc3+    0.000000    0.000000    0.826000    2.000000 Uiso  1.0000
 Cl1_A1_n414 Cl1-    0.242100    0.768700    0.826000    2.000000 Uiso  1.0000
 Cl2_A1_n414 Cl1-    0.757900    0.231300    0.826000    2.000000 Uiso  1.0000
 Cl3_A1_n414 Cl1-    0.238700    0.237100    0.826322    2.000000 Uiso  1.0000
 Cl4_A1_n414 Cl1-    0.761300    0.762900    0.826322    2.000000 Uiso  1.0000
 Cl5_A1_n414 Cl1-    0.238700    0.237100    0.825678    2.000000 Uiso  1.0000
 Cl6_A1_n414 Cl1-    0.761300    0.762900    0.825678    2.000000 Uiso  1.0000
 Li3_A1_n414 Li+    0.500000    0.500000    0.826000    2.000000 Uiso  0.2700
 Sc1_A1_n415 Sc3+    0.000000    0.000000    0.828000    2.000000 Uiso  1.0000
 Cl1_A1_n415 Cl1-    0.242100    0.768700    0.828000    2.000000 Uiso  1.0000
 Cl2_A1_n415 Cl1-    0.757900    0.231300    0.828000    2.000000 Uiso  1.0000
 Cl3_A1_n415 Cl1-    0.238700    0.237100    0.828322    2.000000 Uiso  1.0000
 Cl4_A1_n415 Cl1-    0.761300    0.762900    0.828322    2.000000 Uiso  1.0000
 Cl5_A1_n415 Cl1-    0.238700    0.237100    0.827678    2.000000 Uiso  1.0000
 Cl6_A1_n415 Cl1-    0.761300    0.762900    0.827678    2.000000 Uiso  1.0000
 Li3_A1_n415 Li+    0.500000    0.500000    0.828000    2.000000 Uiso  0.2700
 Sc1_A1_n416 Sc3+    0.000000    0.000000    0.830000    2.000000 Uiso  1.0000
 Cl1_A1_n416 Cl1-    0.242100    0.768700    0.830000    2.000000 Uiso  1.0000
 Cl2_A1_n416 Cl1-    0.757900    0.231300    0.830000    2.000000 Uiso  1.0000
 Cl3_A1_n416 Cl1-    0.238700    0.237100    0.830322    2.000000 Uiso  1.0000
 Cl4_A1_n416 Cl1-    0.761300    0.762900    0.830322    2.000000 Uiso  1.0000
 Cl5_A1_n416 Cl1-    0.238700    0.237100    0.829678    2.000000 Uiso  1.0000
 Cl6_A1_n416 Cl1-    0.761300    0.762900    0.829678    2.000000 Uiso  1.0000
 Li3_A1_n416 Li+    0.500000    0.500000    0.830000    2.000000 Uiso  0.2700
 Sc1_A1_n417 Sc3+    0.000000    0.000000    0.832000    2.000000 Uiso  1.0000
 Cl1_A1_n417 Cl1-    0.242100    0.768700    0.832000    2.000000 Uiso  1.0000
 Cl2_A1_n417 Cl1-    0.757900    0.231300    0.832000    2.000000 Uiso  1.0000
 Cl3_A1_n417 Cl1-    0.238700    0.237100    0.832322    2.000000 Uiso  1.0000
 Cl4_A1_n417 Cl1-    0.761300    0.762900    0.832322    2.000000 Uiso  1.0000
 Cl5_A1_n417 Cl1-    0.238700    0.237100    0.831678    2.000000 Uiso  1.0000
 Cl6_A1_n417 Cl1-    0.761300    0.762900    0.831678    2.000000 Uiso  1.0000
 Li3_A1_n417 Li+    0.500000    0.500000    0.832000    2.000000 Uiso  0.2700
 Sc1_A1_n418 Sc3+    0.000000    0.000000    0.834000    2.000000 Uiso  1.0000
 Cl1_A1_n418 Cl1-    0.242100    0.768700    0.834000    2.000000 Uiso  1.0000
 Cl2_A1_n418 Cl1-    0.757900    0.231300    0.834000    2.000000 Uiso  1.0000
 Cl3_A1_n418 Cl1-    0.238700    0.237100    0.834322    2.000000 Uiso  1.0000
 Cl4_A1_n418 Cl1-    0.761300    0.762900    0.834322    2.000000 Uiso  1.0000
 Cl5_A1_n418 Cl1-    0.238700    0.237100    0.833678    2.000000 Uiso  1.0000
 Cl6_A1_n418 Cl1-    0.761300    0.762900    0.833678    2.000000 Uiso  1.0000
 Li3_A1_n418 Li+    0.500000    0.500000    0.834000    2.000000 Uiso  0.2700
 Sc1_A1_n419 Sc3+    0.000000    0.000000    0.836000    2.000000 Uiso  1.0000
 Cl1_A1_n419 Cl1-    0.242100    0.768700    0.836000    2.000000 Uiso  1.0000
 Cl2_A1_n419 Cl1-    0.757900    0.231300    0.836000    2.000000 Uiso  1.0000
 Cl3_A1_n419 Cl1-    0.238700    0.237100    0.836322    2.000000 Uiso  1.0000
 Cl4_A1_n419 Cl1-    0.761300    0.762900    0.836322    2.000000 Uiso  1.0000
 Cl5_A1_n419 Cl1-    0.238700    0.237100    0.835678    2.000000 Uiso  1.0000
 Cl6_A1_n419 Cl1-    0.761300    0.762900    0.835678    2.000000 Uiso  1.0000
 Li3_A1_n419 Li+    0.500000    0.500000    0.836000    2.000000 Uiso  0.2700
 Sc1_A1_n420 Sc3+    0.000000    0.000000    0.838000    2.000000 Uiso  1.0000
 Cl1_A1_n420 Cl1-    0.242100    0.768700    0.838000    2.000000 Uiso  1.0000
 Cl2_A1_n420 Cl1-    0.757900    0.231300    0.838000    2.000000 Uiso  1.0000
 Cl3_A1_n420 Cl1-    0.238700    0.237100    0.838322    2.000000 Uiso  1.0000
 Cl4_A1_n420 Cl1-    0.761300    0.762900    0.838322    2.000000 Uiso  1.0000
 Cl5_A1_n420 Cl1-    0.238700    0.237100    0.837678    2.000000 Uiso  1.0000
 Cl6_A1_n420 Cl1-    0.761300    0.762900    0.837678    2.000000 Uiso  1.0000
 Li3_A1_n420 Li+    0.500000    0.500000    0.838000    2.000000 Uiso  0.2700
 Sc1_A1_n421 Sc3+    0.000000    0.000000    0.840000    2.000000 Uiso  1.0000
 Cl1_A1_n421 Cl1-    0.242100    0.768700    0.840000    2.000000 Uiso  1.0000
 Cl2_A1_n421 Cl1-    0.757900    0.231300    0.840000    2.000000 Uiso  1.0000
 Cl3_A1_n421 Cl1-    0.238700    0.237100    0.840322    2.000000 Uiso  1.0000
 Cl4_A1_n421 Cl1-    0.761300    0.762900    0.840322    2.000000 Uiso  1.0000
 Cl5_A1_n421 Cl1-    0.238700    0.237100    0.839678    2.000000 Uiso  1.0000
 Cl6_A1_n421 Cl1-    0.761300    0.762900    0.839678    2.000000 Uiso  1.0000
 Li3_A1_n421 Li+    0.500000    0.500000    0.840000    2.000000 Uiso  0.2700
 Sc1_A1_n422 Sc3+    0.000000    0.000000    0.842000    2.000000 Uiso  1.0000
 Cl1_A1_n422 Cl1-    0.242100    0.768700    0.842000    2.000000 Uiso  1.0000
 Cl2_A1_n422 Cl1-    0.757900    0.231300    0.842000    2.000000 Uiso  1.0000
 Cl3_A1_n422 Cl1-    0.238700    0.237100    0.842322    2.000000 Uiso  1.0000
 Cl4_A1_n422 Cl1-    0.761300    0.762900    0.842322    2.000000 Uiso  1.0000
 Cl5_A1_n422 Cl1-    0.238700    0.237100    0.841678    2.000000 Uiso  1.0000
 Cl6_A1_n422 Cl1-    0.761300    0.762900    0.841678    2.000000 Uiso  1.0000
 Li3_A1_n422 Li+    0.500000    0.500000    0.842000    2.000000 Uiso  0.2700
 Sc1_A1_n423 Sc3+    0.000000    0.000000    0.844000    2.000000 Uiso  1.0000
 Cl1_A1_n423 Cl1-    0.242100    0.768700    0.844000    2.000000 Uiso  1.0000
 Cl2_A1_n423 Cl1-    0.757900    0.231300    0.844000    2.000000 Uiso  1.0000
 Cl3_A1_n423 Cl1-    0.238700    0.237100    0.844322    2.000000 Uiso  1.0000
 Cl4_A1_n423 Cl1-    0.761300    0.762900    0.844322    2.000000 Uiso  1.0000
 Cl5_A1_n423 Cl1-    0.238700    0.237100    0.843678    2.000000 Uiso  1.0000
 Cl6_A1_n423 Cl1-    0.761300    0.762900    0.843678    2.000000 Uiso  1.0000
 Li3_A1_n423 Li+    0.500000    0.500000    0.844000    2.000000 Uiso  0.2700
 Sc1_A1_n424 Sc3+    0.000000    0.000000    0.846000    2.000000 Uiso  1.0000
 Cl1_A1_n424 Cl1-    0.242100    0.768700    0.846000    2.000000 Uiso  1.0000
 Cl2_A1_n424 Cl1-    0.757900    0.231300    0.846000    2.000000 Uiso  1.0000
 Cl3_A1_n424 Cl1-    0.238700    0.237100    0.846322    2.000000 Uiso  1.0000
 Cl4_A1_n424 Cl1-    0.761300    0.762900    0.846322    2.000000 Uiso  1.0000
 Cl5_A1_n424 Cl1-    0.238700    0.237100    0.845678    2.000000 Uiso  1.0000
 Cl6_A1_n424 Cl1-    0.761300    0.762900    0.845678    2.000000 Uiso  1.0000
 Li3_A1_n424 Li+    0.500000    0.500000    0.846000    2.000000 Uiso  0.2700
 Sc1_A1_n425 Sc3+    0.000000    0.000000    0.848000    2.000000 Uiso  1.0000
 Cl1_A1_n425 Cl1-    0.242100    0.768700    0.848000    2.000000 Uiso  1.0000
 Cl2_A1_n425 Cl1-    0.757900    0.231300    0.848000    2.000000 Uiso  1.0000
 Cl3_A1_n425 Cl1-    0.238700    0.237100    0.848322    2.000000 Uiso  1.0000
 Cl4_A1_n425 Cl1-    0.761300    0.762900    0.848322    2.000000 Uiso  1.0000
 Cl5_A1_n425 Cl1-    0.238700    0.237100    0.847678    2.000000 Uiso  1.0000
 Cl6_A1_n425 Cl1-    0.761300    0.762900    0.847678    2.000000 Uiso  1.0000
 Li3_A1_n425 Li+    0.500000    0.500000    0.848000    2.000000 Uiso  0.2700
 Sc1_A1_n426 Sc3+    0.000000    0.000000    0.850000    2.000000 Uiso  1.0000
 Cl1_A1_n426 Cl1-    0.242100    0.768700    0.850000    2.000000 Uiso  1.0000
 Cl2_A1_n426 Cl1-    0.757900    0.231300    0.850000    2.000000 Uiso  1.0000
 Cl3_A1_n426 Cl1-    0.238700    0.237100    0.850322    2.000000 Uiso  1.0000
 Cl4_A1_n426 Cl1-    0.761300    0.762900    0.850322    2.000000 Uiso  1.0000
 Cl5_A1_n426 Cl1-    0.238700    0.237100    0.849678    2.000000 Uiso  1.0000
 Cl6_A1_n426 Cl1-    0.761300    0.762900    0.849678    2.000000 Uiso  1.0000
 Li3_A1_n426 Li+    0.500000    0.500000    0.850000    2.000000 Uiso  0.2700
 Sc1_A1_n427 Sc3+    0.000000    0.000000    0.852000    2.000000 Uiso  1.0000
 Cl1_A1_n427 Cl1-    0.242100    0.768700    0.852000    2.000000 Uiso  1.0000
 Cl2_A1_n427 Cl1-    0.757900    0.231300    0.852000    2.000000 Uiso  1.0000
 Cl3_A1_n427 Cl1-    0.238700    0.237100    0.852322    2.000000 Uiso  1.0000
 Cl4_A1_n427 Cl1-    0.761300    0.762900    0.852322    2.000000 Uiso  1.0000
 Cl5_A1_n427 Cl1-    0.238700    0.237100    0.851678    2.000000 Uiso  1.0000
 Cl6_A1_n427 Cl1-    0.761300    0.762900    0.851678    2.000000 Uiso  1.0000
 Li3_A1_n427 Li+    0.500000    0.500000    0.852000    2.000000 Uiso  0.2700
 Sc1_A1_n428 Sc3+    0.000000    0.000000    0.854000    2.000000 Uiso  1.0000
 Cl1_A1_n428 Cl1-    0.242100    0.768700    0.854000    2.000000 Uiso  1.0000
 Cl2_A1_n428 Cl1-    0.757900    0.231300    0.854000    2.000000 Uiso  1.0000
 Cl3_A1_n428 Cl1-    0.238700    0.237100    0.854322    2.000000 Uiso  1.0000
 Cl4_A1_n428 Cl1-    0.761300    0.762900    0.854322    2.000000 Uiso  1.0000
 Cl5_A1_n428 Cl1-    0.238700    0.237100    0.853678    2.000000 Uiso  1.0000
 Cl6_A1_n428 Cl1-    0.761300    0.762900    0.853678    2.000000 Uiso  1.0000
 Li3_A1_n428 Li+    0.500000    0.500000    0.854000    2.000000 Uiso  0.2700
 Sc1_A1_n429 Sc3+    0.000000    0.000000    0.856000    2.000000 Uiso  1.0000
 Cl1_A1_n429 Cl1-    0.242100    0.768700    0.856000    2.000000 Uiso  1.0000
 Cl2_A1_n429 Cl1-    0.757900    0.231300    0.856000    2.000000 Uiso  1.0000
 Cl3_A1_n429 Cl1-    0.238700    0.237100    0.856322    2.000000 Uiso  1.0000
 Cl4_A1_n429 Cl1-    0.761300    0.762900    0.856322    2.000000 Uiso  1.0000
 Cl5_A1_n429 Cl1-    0.238700    0.237100    0.855678    2.000000 Uiso  1.0000
 Cl6_A1_n429 Cl1-    0.761300    0.762900    0.855678    2.000000 Uiso  1.0000
 Li3_A1_n429 Li+    0.500000    0.500000    0.856000    2.000000 Uiso  0.2700
 Sc1_A1_n430 Sc3+    0.000000    0.000000    0.858000    2.000000 Uiso  1.0000
 Cl1_A1_n430 Cl1-    0.242100    0.768700    0.858000    2.000000 Uiso  1.0000
 Cl2_A1_n430 Cl1-    0.757900    0.231300    0.858000    2.000000 Uiso  1.0000
 Cl3_A1_n430 Cl1-    0.238700    0.237100    0.858322    2.000000 Uiso  1.0000
 Cl4_A1_n430 Cl1-    0.761300    0.762900    0.858322    2.000000 Uiso  1.0000
 Cl5_A1_n430 Cl1-    0.238700    0.237100    0.857678    2.000000 Uiso  1.0000
 Cl6_A1_n430 Cl1-    0.761300    0.762900    0.857678    2.000000 Uiso  1.0000
 Li3_A1_n430 Li+    0.500000    0.500000    0.858000    2.000000 Uiso  0.2700
 Sc1_A1_n431 Sc3+    0.000000    0.000000    0.860000    2.000000 Uiso  1.0000
 Cl1_A1_n431 Cl1-    0.242100    0.768700    0.860000    2.000000 Uiso  1.0000
 Cl2_A1_n431 Cl1-    0.757900    0.231300    0.860000    2.000000 Uiso  1.0000
 Cl3_A1_n431 Cl1-    0.238700    0.237100    0.860322    2.000000 Uiso  1.0000
 Cl4_A1_n431 Cl1-    0.761300    0.762900    0.860322    2.000000 Uiso  1.0000
 Cl5_A1_n431 Cl1-    0.238700    0.237100    0.859678    2.000000 Uiso  1.0000
 Cl6_A1_n431 Cl1-    0.761300    0.762900    0.859678    2.000000 Uiso  1.0000
 Li3_A1_n431 Li+    0.500000    0.500000    0.860000    2.000000 Uiso  0.2700
 Sc1_A1_n432 Sc3+    0.000000    0.000000    0.862000    2.000000 Uiso  1.0000
 Cl1_A1_n432 Cl1-    0.242100    0.768700    0.862000    2.000000 Uiso  1.0000
 Cl2_A1_n432 Cl1-    0.757900    0.231300    0.862000    2.000000 Uiso  1.0000
 Cl3_A1_n432 Cl1-    0.238700    0.237100    0.862322    2.000000 Uiso  1.0000
 Cl4_A1_n432 Cl1-    0.761300    0.762900    0.862322    2.000000 Uiso  1.0000
 Cl5_A1_n432 Cl1-    0.238700    0.237100    0.861678    2.000000 Uiso  1.0000
 Cl6_A1_n432 Cl1-    0.761300    0.762900    0.861678    2.000000 Uiso  1.0000
 Li3_A1_n432 Li+    0.500000    0.500000    0.862000    2.000000 Uiso  0.2700
 Sc1_A1_n433 Sc3+    0.000000    0.000000    0.864000    2.000000 Uiso  1.0000
 Cl1_A1_n433 Cl1-    0.242100    0.768700    0.864000    2.000000 Uiso  1.0000
 Cl2_A1_n433 Cl1-    0.757900    0.231300    0.864000    2.000000 Uiso  1.0000
 Cl3_A1_n433 Cl1-    0.238700    0.237100    0.864322    2.000000 Uiso  1.0000
 Cl4_A1_n433 Cl1-    0.761300    0.762900    0.864322    2.000000 Uiso  1.0000
 Cl5_A1_n433 Cl1-    0.238700    0.237100    0.863678    2.000000 Uiso  1.0000
 Cl6_A1_n433 Cl1-    0.761300    0.762900    0.863678    2.000000 Uiso  1.0000
 Li3_A1_n433 Li+    0.500000    0.500000    0.864000    2.000000 Uiso  0.2700
 Sc1_A1_n434 Sc3+    0.000000    0.000000    0.866000    2.000000 Uiso  1.0000
 Cl1_A1_n434 Cl1-    0.242100    0.768700    0.866000    2.000000 Uiso  1.0000
 Cl2_A1_n434 Cl1-    0.757900    0.231300    0.866000    2.000000 Uiso  1.0000
 Cl3_A1_n434 Cl1-    0.238700    0.237100    0.866322    2.000000 Uiso  1.0000
 Cl4_A1_n434 Cl1-    0.761300    0.762900    0.866322    2.000000 Uiso  1.0000
 Cl5_A1_n434 Cl1-    0.238700    0.237100    0.865678    2.000000 Uiso  1.0000
 Cl6_A1_n434 Cl1-    0.761300    0.762900    0.865678    2.000000 Uiso  1.0000
 Li3_A1_n434 Li+    0.500000    0.500000    0.866000    2.000000 Uiso  0.2700
 Sc1_A1_n435 Sc3+    0.000000    0.000000    0.868000    2.000000 Uiso  1.0000
 Cl1_A1_n435 Cl1-    0.242100    0.768700    0.868000    2.000000 Uiso  1.0000
 Cl2_A1_n435 Cl1-    0.757900    0.231300    0.868000    2.000000 Uiso  1.0000
 Cl3_A1_n435 Cl1-    0.238700    0.237100    0.868322    2.000000 Uiso  1.0000
 Cl4_A1_n435 Cl1-    0.761300    0.762900    0.868322    2.000000 Uiso  1.0000
 Cl5_A1_n435 Cl1-    0.238700    0.237100    0.867678    2.000000 Uiso  1.0000
 Cl6_A1_n435 Cl1-    0.761300    0.762900    0.867678    2.000000 Uiso  1.0000
 Li3_A1_n435 Li+    0.500000    0.500000    0.868000    2.000000 Uiso  0.2700
 Sc1_A1_n436 Sc3+    0.000000    0.000000    0.870000    2.000000 Uiso  1.0000
 Cl1_A1_n436 Cl1-    0.242100    0.768700    0.870000    2.000000 Uiso  1.0000
 Cl2_A1_n436 Cl1-    0.757900    0.231300    0.870000    2.000000 Uiso  1.0000
 Cl3_A1_n436 Cl1-    0.238700    0.237100    0.870322    2.000000 Uiso  1.0000
 Cl4_A1_n436 Cl1-    0.761300    0.762900    0.870322    2.000000 Uiso  1.0000
 Cl5_A1_n436 Cl1-    0.238700    0.237100    0.869678    2.000000 Uiso  1.0000
 Cl6_A1_n436 Cl1-    0.761300    0.762900    0.869678    2.000000 Uiso  1.0000
 Li3_A1_n436 Li+    0.500000    0.500000    0.870000    2.000000 Uiso  0.2700
 Sc1_A1_n437 Sc3+    0.000000    0.000000    0.872000    2.000000 Uiso  1.0000
 Cl1_A1_n437 Cl1-    0.242100    0.768700    0.872000    2.000000 Uiso  1.0000
 Cl2_A1_n437 Cl1-    0.757900    0.231300    0.872000    2.000000 Uiso  1.0000
 Cl3_A1_n437 Cl1-    0.238700    0.237100    0.872322    2.000000 Uiso  1.0000
 Cl4_A1_n437 Cl1-    0.761300    0.762900    0.872322    2.000000 Uiso  1.0000
 Cl5_A1_n437 Cl1-    0.238700    0.237100    0.871678    2.000000 Uiso  1.0000
 Cl6_A1_n437 Cl1-    0.761300    0.762900    0.871678    2.000000 Uiso  1.0000
 Li3_A1_n437 Li+    0.500000    0.500000    0.872000    2.000000 Uiso  0.2700
 Sc1_A1_n438 Sc3+    0.000000    0.000000    0.874000    2.000000 Uiso  1.0000
 Cl1_A1_n438 Cl1-    0.242100    0.768700    0.874000    2.000000 Uiso  1.0000
 Cl2_A1_n438 Cl1-    0.757900    0.231300    0.874000    2.000000 Uiso  1.0000
 Cl3_A1_n438 Cl1-    0.238700    0.237100    0.874322    2.000000 Uiso  1.0000
 Cl4_A1_n438 Cl1-    0.761300    0.762900    0.874322    2.000000 Uiso  1.0000
 Cl5_A1_n438 Cl1-    0.238700    0.237100    0.873678    2.000000 Uiso  1.0000
 Cl6_A1_n438 Cl1-    0.761300    0.762900    0.873678    2.000000 Uiso  1.0000
 Li3_A1_n438 Li+    0.500000    0.500000    0.874000    2.000000 Uiso  0.2700
 Sc1_A1_n439 Sc3+    0.000000    0.000000    0.876000    2.000000 Uiso  1.0000
 Cl1_A1_n439 Cl1-    0.242100    0.768700    0.876000    2.000000 Uiso  1.0000
 Cl2_A1_n439 Cl1-    0.757900    0.231300    0.876000    2.000000 Uiso  1.0000
 Cl3_A1_n439 Cl1-    0.238700    0.237100    0.876322    2.000000 Uiso  1.0000
 Cl4_A1_n439 Cl1-    0.761300    0.762900    0.876322    2.000000 Uiso  1.0000
 Cl5_A1_n439 Cl1-    0.238700    0.237100    0.875678    2.000000 Uiso  1.0000
 Cl6_A1_n439 Cl1-    0.761300    0.762900    0.875678    2.000000 Uiso  1.0000
 Li3_A1_n439 Li+    0.500000    0.500000    0.876000    2.000000 Uiso  0.2700
 Sc1_A1_n440 Sc3+    0.000000    0.000000    0.878000    2.000000 Uiso  1.0000
 Cl1_A1_n440 Cl1-    0.242100    0.768700    0.878000    2.000000 Uiso  1.0000
 Cl2_A1_n440 Cl1-    0.757900    0.231300    0.878000    2.000000 Uiso  1.0000
 Cl3_A1_n440 Cl1-    0.238700    0.237100    0.878322    2.000000 Uiso  1.0000
 Cl4_A1_n440 Cl1-    0.761300    0.762900    0.878322    2.000000 Uiso  1.0000
 Cl5_A1_n440 Cl1-    0.238700    0.237100    0.877678    2.000000 Uiso  1.0000
 Cl6_A1_n440 Cl1-    0.761300    0.762900    0.877678    2.000000 Uiso  1.0000
 Li3_A1_n440 Li+    0.500000    0.500000    0.878000    2.000000 Uiso  0.2700
 Sc1_A1_n441 Sc3+    0.000000    0.000000    0.880000    2.000000 Uiso  1.0000
 Cl1_A1_n441 Cl1-    0.242100    0.768700    0.880000    2.000000 Uiso  1.0000
 Cl2_A1_n441 Cl1-    0.757900    0.231300    0.880000    2.000000 Uiso  1.0000
 Cl3_A1_n441 Cl1-    0.238700    0.237100    0.880322    2.000000 Uiso  1.0000
 Cl4_A1_n441 Cl1-    0.761300    0.762900    0.880322    2.000000 Uiso  1.0000
 Cl5_A1_n441 Cl1-    0.238700    0.237100    0.879678    2.000000 Uiso  1.0000
 Cl6_A1_n441 Cl1-    0.761300    0.762900    0.879678    2.000000 Uiso  1.0000
 Li3_A1_n441 Li+    0.500000    0.500000    0.880000    2.000000 Uiso  0.2700
 Sc1_A1_n442 Sc3+    0.000000    0.000000    0.882000    2.000000 Uiso  1.0000
 Cl1_A1_n442 Cl1-    0.242100    0.768700    0.882000    2.000000 Uiso  1.0000
 Cl2_A1_n442 Cl1-    0.757900    0.231300    0.882000    2.000000 Uiso  1.0000
 Cl3_A1_n442 Cl1-    0.238700    0.237100    0.882322    2.000000 Uiso  1.0000
 Cl4_A1_n442 Cl1-    0.761300    0.762900    0.882322    2.000000 Uiso  1.0000
 Cl5_A1_n442 Cl1-    0.238700    0.237100    0.881678    2.000000 Uiso  1.0000
 Cl6_A1_n442 Cl1-    0.761300    0.762900    0.881678    2.000000 Uiso  1.0000
 Li3_A1_n442 Li+    0.500000    0.500000    0.882000    2.000000 Uiso  0.2700
 Sc1_A1_n443 Sc3+    0.000000    0.000000    0.884000    2.000000 Uiso  1.0000
 Cl1_A1_n443 Cl1-    0.242100    0.768700    0.884000    2.000000 Uiso  1.0000
 Cl2_A1_n443 Cl1-    0.757900    0.231300    0.884000    2.000000 Uiso  1.0000
 Cl3_A1_n443 Cl1-    0.238700    0.237100    0.884322    2.000000 Uiso  1.0000
 Cl4_A1_n443 Cl1-    0.761300    0.762900    0.884322    2.000000 Uiso  1.0000
 Cl5_A1_n443 Cl1-    0.238700    0.237100    0.883678    2.000000 Uiso  1.0000
 Cl6_A1_n443 Cl1-    0.761300    0.762900    0.883678    2.000000 Uiso  1.0000
 Li3_A1_n443 Li+    0.500000    0.500000    0.884000    2.000000 Uiso  0.2700
 Sc1_A1_n444 Sc3+    0.000000    0.000000    0.886000    2.000000 Uiso  1.0000
 Cl1_A1_n444 Cl1-    0.242100    0.768700    0.886000    2.000000 Uiso  1.0000
 Cl2_A1_n444 Cl1-    0.757900    0.231300    0.886000    2.000000 Uiso  1.0000
 Cl3_A1_n444 Cl1-    0.238700    0.237100    0.886322    2.000000 Uiso  1.0000
 Cl4_A1_n444 Cl1-    0.761300    0.762900    0.886322    2.000000 Uiso  1.0000
 Cl5_A1_n444 Cl1-    0.238700    0.237100    0.885678    2.000000 Uiso  1.0000
 Cl6_A1_n444 Cl1-    0.761300    0.762900    0.885678    2.000000 Uiso  1.0000
 Li3_A1_n444 Li+    0.500000    0.500000    0.886000    2.000000 Uiso  0.2700
 Sc1_A1_n445 Sc3+    0.000000    0.000000    0.888000    2.000000 Uiso  1.0000
 Cl1_A1_n445 Cl1-    0.242100    0.768700    0.888000    2.000000 Uiso  1.0000
 Cl2_A1_n445 Cl1-    0.757900    0.231300    0.888000    2.000000 Uiso  1.0000
 Cl3_A1_n445 Cl1-    0.238700    0.237100    0.888322    2.000000 Uiso  1.0000
 Cl4_A1_n445 Cl1-    0.761300    0.762900    0.888322    2.000000 Uiso  1.0000
 Cl5_A1_n445 Cl1-    0.238700    0.237100    0.887678    2.000000 Uiso  1.0000
 Cl6_A1_n445 Cl1-    0.761300    0.762900    0.887678    2.000000 Uiso  1.0000
 Li3_A1_n445 Li+    0.500000    0.500000    0.888000    2.000000 Uiso  0.2700
 Sc1_A1_n446 Sc3+    0.000000    0.000000    0.890000    2.000000 Uiso  1.0000
 Cl1_A1_n446 Cl1-    0.242100    0.768700    0.890000    2.000000 Uiso  1.0000
 Cl2_A1_n446 Cl1-    0.757900    0.231300    0.890000    2.000000 Uiso  1.0000
 Cl3_A1_n446 Cl1-    0.238700    0.237100    0.890322    2.000000 Uiso  1.0000
 Cl4_A1_n446 Cl1-    0.761300    0.762900    0.890322    2.000000 Uiso  1.0000
 Cl5_A1_n446 Cl1-    0.238700    0.237100    0.889678    2.000000 Uiso  1.0000
 Cl6_A1_n446 Cl1-    0.761300    0.762900    0.889678    2.000000 Uiso  1.0000
 Li3_A1_n446 Li+    0.500000    0.500000    0.890000    2.000000 Uiso  0.2700
 Sc1_A1_n447 Sc3+    0.000000    0.000000    0.892000    2.000000 Uiso  1.0000
 Cl1_A1_n447 Cl1-    0.242100    0.768700    0.892000    2.000000 Uiso  1.0000
 Cl2_A1_n447 Cl1-    0.757900    0.231300    0.892000    2.000000 Uiso  1.0000
 Cl3_A1_n447 Cl1-    0.238700    0.237100    0.892322    2.000000 Uiso  1.0000
 Cl4_A1_n447 Cl1-    0.761300    0.762900    0.892322    2.000000 Uiso  1.0000
 Cl5_A1_n447 Cl1-    0.238700    0.237100    0.891678    2.000000 Uiso  1.0000
 Cl6_A1_n447 Cl1-    0.761300    0.762900    0.891678    2.000000 Uiso  1.0000
 Li3_A1_n447 Li+    0.500000    0.500000    0.892000    2.000000 Uiso  0.2700
 Sc1_A1_n448 Sc3+    0.000000    0.000000    0.894000    2.000000 Uiso  1.0000
 Cl1_A1_n448 Cl1-    0.242100    0.768700    0.894000    2.000000 Uiso  1.0000
 Cl2_A1_n448 Cl1-    0.757900    0.231300    0.894000    2.000000 Uiso  1.0000
 Cl3_A1_n448 Cl1-    0.238700    0.237100    0.894322    2.000000 Uiso  1.0000
 Cl4_A1_n448 Cl1-    0.761300    0.762900    0.894322    2.000000 Uiso  1.0000
 Cl5_A1_n448 Cl1-    0.238700    0.237100    0.893678    2.000000 Uiso  1.0000
 Cl6_A1_n448 Cl1-    0.761300    0.762900    0.893678    2.000000 Uiso  1.0000
 Li3_A1_n448 Li+    0.500000    0.500000    0.894000    2.000000 Uiso  0.2700
 Sc1_A1_n449 Sc3+    0.000000    0.000000    0.896000    2.000000 Uiso  1.0000
 Cl1_A1_n449 Cl1-    0.242100    0.768700    0.896000    2.000000 Uiso  1.0000
 Cl2_A1_n449 Cl1-    0.757900    0.231300    0.896000    2.000000 Uiso  1.0000
 Cl3_A1_n449 Cl1-    0.238700    0.237100    0.896322    2.000000 Uiso  1.0000
 Cl4_A1_n449 Cl1-    0.761300    0.762900    0.896322    2.000000 Uiso  1.0000
 Cl5_A1_n449 Cl1-    0.238700    0.237100    0.895678    2.000000 Uiso  1.0000
 Cl6_A1_n449 Cl1-    0.761300    0.762900    0.895678    2.000000 Uiso  1.0000
 Li3_A1_n449 Li+    0.500000    0.500000    0.896000    2.000000 Uiso  0.2700
 Sc1_A1_n450 Sc3+    0.000000    0.000000    0.898000    2.000000 Uiso  1.0000
 Cl1_A1_n450 Cl1-    0.242100    0.768700    0.898000    2.000000 Uiso  1.0000
 Cl2_A1_n450 Cl1-    0.757900    0.231300    0.898000    2.000000 Uiso  1.0000
 Cl3_A1_n450 Cl1-    0.238700    0.237100    0.898322    2.000000 Uiso  1.0000
 Cl4_A1_n450 Cl1-    0.761300    0.762900    0.898322    2.000000 Uiso  1.0000
 Cl5_A1_n450 Cl1-    0.238700    0.237100    0.897678    2.000000 Uiso  1.0000
 Cl6_A1_n450 Cl1-    0.761300    0.762900    0.897678    2.000000 Uiso  1.0000
 Li3_A1_n450 Li+    0.500000    0.500000    0.898000    2.000000 Uiso  0.2700
 Sc1_A1_n451 Sc3+    0.000000    0.000000    0.900000    2.000000 Uiso  1.0000
 Cl1_A1_n451 Cl1-    0.242100    0.768700    0.900000    2.000000 Uiso  1.0000
 Cl2_A1_n451 Cl1-    0.757900    0.231300    0.900000    2.000000 Uiso  1.0000
 Cl3_A1_n451 Cl1-    0.238700    0.237100    0.900322    2.000000 Uiso  1.0000
 Cl4_A1_n451 Cl1-    0.761300    0.762900    0.900322    2.000000 Uiso  1.0000
 Cl5_A1_n451 Cl1-    0.238700    0.237100    0.899678    2.000000 Uiso  1.0000
 Cl6_A1_n451 Cl1-    0.761300    0.762900    0.899678    2.000000 Uiso  1.0000
 Li3_A1_n451 Li+    0.500000    0.500000    0.900000    2.000000 Uiso  0.2700
 Sc1_A1_n452 Sc3+    0.000000    0.000000    0.902000    2.000000 Uiso  1.0000
 Cl1_A1_n452 Cl1-    0.242100    0.768700    0.902000    2.000000 Uiso  1.0000
 Cl2_A1_n452 Cl1-    0.757900    0.231300    0.902000    2.000000 Uiso  1.0000
 Cl3_A1_n452 Cl1-    0.238700    0.237100    0.902322    2.000000 Uiso  1.0000
 Cl4_A1_n452 Cl1-    0.761300    0.762900    0.902322    2.000000 Uiso  1.0000
 Cl5_A1_n452 Cl1-    0.238700    0.237100    0.901678    2.000000 Uiso  1.0000
 Cl6_A1_n452 Cl1-    0.761300    0.762900    0.901678    2.000000 Uiso  1.0000
 Li3_A1_n452 Li+    0.500000    0.500000    0.902000    2.000000 Uiso  0.2700
 Sc1_A1_n453 Sc3+    0.000000    0.000000    0.904000    2.000000 Uiso  1.0000
 Cl1_A1_n453 Cl1-    0.242100    0.768700    0.904000    2.000000 Uiso  1.0000
 Cl2_A1_n453 Cl1-    0.757900    0.231300    0.904000    2.000000 Uiso  1.0000
 Cl3_A1_n453 Cl1-    0.238700    0.237100    0.904322    2.000000 Uiso  1.0000
 Cl4_A1_n453 Cl1-    0.761300    0.762900    0.904322    2.000000 Uiso  1.0000
 Cl5_A1_n453 Cl1-    0.238700    0.237100    0.903678    2.000000 Uiso  1.0000
 Cl6_A1_n453 Cl1-    0.761300    0.762900    0.903678    2.000000 Uiso  1.0000
 Li3_A1_n453 Li+    0.500000    0.500000    0.904000    2.000000 Uiso  0.2700
 Sc1_A1_n454 Sc3+    0.000000    0.000000    0.906000    2.000000 Uiso  1.0000
 Cl1_A1_n454 Cl1-    0.242100    0.768700    0.906000    2.000000 Uiso  1.0000
 Cl2_A1_n454 Cl1-    0.757900    0.231300    0.906000    2.000000 Uiso  1.0000
 Cl3_A1_n454 Cl1-    0.238700    0.237100    0.906322    2.000000 Uiso  1.0000
 Cl4_A1_n454 Cl1-    0.761300    0.762900    0.906322    2.000000 Uiso  1.0000
 Cl5_A1_n454 Cl1-    0.238700    0.237100    0.905678    2.000000 Uiso  1.0000
 Cl6_A1_n454 Cl1-    0.761300    0.762900    0.905678    2.000000 Uiso  1.0000
 Li3_A1_n454 Li+    0.500000    0.500000    0.906000    2.000000 Uiso  0.2700
 Sc1_A1_n455 Sc3+    0.000000    0.000000    0.908000    2.000000 Uiso  1.0000
 Cl1_A1_n455 Cl1-    0.242100    0.768700    0.908000    2.000000 Uiso  1.0000
 Cl2_A1_n455 Cl1-    0.757900    0.231300    0.908000    2.000000 Uiso  1.0000
 Cl3_A1_n455 Cl1-    0.238700    0.237100    0.908322    2.000000 Uiso  1.0000
 Cl4_A1_n455 Cl1-    0.761300    0.762900    0.908322    2.000000 Uiso  1.0000
 Cl5_A1_n455 Cl1-    0.238700    0.237100    0.907678    2.000000 Uiso  1.0000
 Cl6_A1_n455 Cl1-    0.761300    0.762900    0.907678    2.000000 Uiso  1.0000
 Li3_A1_n455 Li+    0.500000    0.500000    0.908000    2.000000 Uiso  0.2700
 Sc1_A1_n456 Sc3+    0.000000    0.000000    0.910000    2.000000 Uiso  1.0000
 Cl1_A1_n456 Cl1-    0.242100    0.768700    0.910000    2.000000 Uiso  1.0000
 Cl2_A1_n456 Cl1-    0.757900    0.231300    0.910000    2.000000 Uiso  1.0000
 Cl3_A1_n456 Cl1-    0.238700    0.237100    0.910322    2.000000 Uiso  1.0000
 Cl4_A1_n456 Cl1-    0.761300    0.762900    0.910322    2.000000 Uiso  1.0000
 Cl5_A1_n456 Cl1-    0.238700    0.237100    0.909678    2.000000 Uiso  1.0000
 Cl6_A1_n456 Cl1-    0.761300    0.762900    0.909678    2.000000 Uiso  1.0000
 Li3_A1_n456 Li+    0.500000    0.500000    0.910000    2.000000 Uiso  0.2700
 Sc1_A1_n457 Sc3+    0.000000    0.000000    0.912000    2.000000 Uiso  1.0000
 Cl1_A1_n457 Cl1-    0.242100    0.768700    0.912000    2.000000 Uiso  1.0000
 Cl2_A1_n457 Cl1-    0.757900    0.231300    0.912000    2.000000 Uiso  1.0000
 Cl3_A1_n457 Cl1-    0.238700    0.237100    0.912322    2.000000 Uiso  1.0000
 Cl4_A1_n457 Cl1-    0.761300    0.762900    0.912322    2.000000 Uiso  1.0000
 Cl5_A1_n457 Cl1-    0.238700    0.237100    0.911678    2.000000 Uiso  1.0000
 Cl6_A1_n457 Cl1-    0.761300    0.762900    0.911678    2.000000 Uiso  1.0000
 Li3_A1_n457 Li+    0.500000    0.500000    0.912000    2.000000 Uiso  0.2700
 Sc1_A1_n458 Sc3+    0.000000    0.000000    0.914000    2.000000 Uiso  1.0000
 Cl1_A1_n458 Cl1-    0.242100    0.768700    0.914000    2.000000 Uiso  1.0000
 Cl2_A1_n458 Cl1-    0.757900    0.231300    0.914000    2.000000 Uiso  1.0000
 Cl3_A1_n458 Cl1-    0.238700    0.237100    0.914322    2.000000 Uiso  1.0000
 Cl4_A1_n458 Cl1-    0.761300    0.762900    0.914322    2.000000 Uiso  1.0000
 Cl5_A1_n458 Cl1-    0.238700    0.237100    0.913678    2.000000 Uiso  1.0000
 Cl6_A1_n458 Cl1-    0.761300    0.762900    0.913678    2.000000 Uiso  1.0000
 Li3_A1_n458 Li+    0.500000    0.500000    0.914000    2.000000 Uiso  0.2700
 Sc1_A1_n459 Sc3+    0.000000    0.000000    0.916000    2.000000 Uiso  1.0000
 Cl1_A1_n459 Cl1-    0.242100    0.768700    0.916000    2.000000 Uiso  1.0000
 Cl2_A1_n459 Cl1-    0.757900    0.231300    0.916000    2.000000 Uiso  1.0000
 Cl3_A1_n459 Cl1-    0.238700    0.237100    0.916322    2.000000 Uiso  1.0000
 Cl4_A1_n459 Cl1-    0.761300    0.762900    0.916322    2.000000 Uiso  1.0000
 Cl5_A1_n459 Cl1-    0.238700    0.237100    0.915678    2.000000 Uiso  1.0000
 Cl6_A1_n459 Cl1-    0.761300    0.762900    0.915678    2.000000 Uiso  1.0000
 Li3_A1_n459 Li+    0.500000    0.500000    0.916000    2.000000 Uiso  0.2700
 Sc1_A1_n460 Sc3+    0.000000    0.000000    0.918000    2.000000 Uiso  1.0000
 Cl1_A1_n460 Cl1-    0.242100    0.768700    0.918000    2.000000 Uiso  1.0000
 Cl2_A1_n460 Cl1-    0.757900    0.231300    0.918000    2.000000 Uiso  1.0000
 Cl3_A1_n460 Cl1-    0.238700    0.237100    0.918322    2.000000 Uiso  1.0000
 Cl4_A1_n460 Cl1-    0.761300    0.762900    0.918322    2.000000 Uiso  1.0000
 Cl5_A1_n460 Cl1-    0.238700    0.237100    0.917678    2.000000 Uiso  1.0000
 Cl6_A1_n460 Cl1-    0.761300    0.762900    0.917678    2.000000 Uiso  1.0000
 Li3_A1_n460 Li+    0.500000    0.500000    0.918000    2.000000 Uiso  0.2700
 Sc1_A1_n461 Sc3+    0.000000    0.000000    0.920000    2.000000 Uiso  1.0000
 Cl1_A1_n461 Cl1-    0.242100    0.768700    0.920000    2.000000 Uiso  1.0000
 Cl2_A1_n461 Cl1-    0.757900    0.231300    0.920000    2.000000 Uiso  1.0000
 Cl3_A1_n461 Cl1-    0.238700    0.237100    0.920322    2.000000 Uiso  1.0000
 Cl4_A1_n461 Cl1-    0.761300    0.762900    0.920322    2.000000 Uiso  1.0000
 Cl5_A1_n461 Cl1-    0.238700    0.237100    0.919678    2.000000 Uiso  1.0000
 Cl6_A1_n461 Cl1-    0.761300    0.762900    0.919678    2.000000 Uiso  1.0000
 Li3_A1_n461 Li+    0.500000    0.500000    0.920000    2.000000 Uiso  0.2700
 Sc1_A1_n462 Sc3+    0.000000    0.000000    0.922000    2.000000 Uiso  1.0000
 Cl1_A1_n462 Cl1-    0.242100    0.768700    0.922000    2.000000 Uiso  1.0000
 Cl2_A1_n462 Cl1-    0.757900    0.231300    0.922000    2.000000 Uiso  1.0000
 Cl3_A1_n462 Cl1-    0.238700    0.237100    0.922322    2.000000 Uiso  1.0000
 Cl4_A1_n462 Cl1-    0.761300    0.762900    0.922322    2.000000 Uiso  1.0000
 Cl5_A1_n462 Cl1-    0.238700    0.237100    0.921678    2.000000 Uiso  1.0000
 Cl6_A1_n462 Cl1-    0.761300    0.762900    0.921678    2.000000 Uiso  1.0000
 Li3_A1_n462 Li+    0.500000    0.500000    0.922000    2.000000 Uiso  0.2700
 Sc1_A1_n463 Sc3+    0.000000    0.000000    0.924000    2.000000 Uiso  1.0000
 Cl1_A1_n463 Cl1-    0.242100    0.768700    0.924000    2.000000 Uiso  1.0000
 Cl2_A1_n463 Cl1-    0.757900    0.231300    0.924000    2.000000 Uiso  1.0000
 Cl3_A1_n463 Cl1-    0.238700    0.237100    0.924322    2.000000 Uiso  1.0000
 Cl4_A1_n463 Cl1-    0.761300    0.762900    0.924322    2.000000 Uiso  1.0000
 Cl5_A1_n463 Cl1-    0.238700    0.237100    0.923678    2.000000 Uiso  1.0000
 Cl6_A1_n463 Cl1-    0.761300    0.762900    0.923678    2.000000 Uiso  1.0000
 Li3_A1_n463 Li+    0.500000    0.500000    0.924000    2.000000 Uiso  0.2700
 Sc1_A1_n464 Sc3+    0.000000    0.000000    0.926000    2.000000 Uiso  1.0000
 Cl1_A1_n464 Cl1-    0.242100    0.768700    0.926000    2.000000 Uiso  1.0000
 Cl2_A1_n464 Cl1-    0.757900    0.231300    0.926000    2.000000 Uiso  1.0000
 Cl3_A1_n464 Cl1-    0.238700    0.237100    0.926322    2.000000 Uiso  1.0000
 Cl4_A1_n464 Cl1-    0.761300    0.762900    0.926322    2.000000 Uiso  1.0000
 Cl5_A1_n464 Cl1-    0.238700    0.237100    0.925678    2.000000 Uiso  1.0000
 Cl6_A1_n464 Cl1-    0.761300    0.762900    0.925678    2.000000 Uiso  1.0000
 Li3_A1_n464 Li+    0.500000    0.500000    0.926000    2.000000 Uiso  0.2700
 Sc1_A1_n465 Sc3+    0.000000    0.000000    0.928000    2.000000 Uiso  1.0000
 Cl1_A1_n465 Cl1-    0.242100    0.768700    0.928000    2.000000 Uiso  1.0000
 Cl2_A1_n465 Cl1-    0.757900    0.231300    0.928000    2.000000 Uiso  1.0000
 Cl3_A1_n465 Cl1-    0.238700    0.237100    0.928322    2.000000 Uiso  1.0000
 Cl4_A1_n465 Cl1-    0.761300    0.762900    0.928322    2.000000 Uiso  1.0000
 Cl5_A1_n465 Cl1-    0.238700    0.237100    0.927678    2.000000 Uiso  1.0000
 Cl6_A1_n465 Cl1-    0.761300    0.762900    0.927678    2.000000 Uiso  1.0000
 Li3_A1_n465 Li+    0.500000    0.500000    0.928000    2.000000 Uiso  0.2700
 Sc1_A1_n466 Sc3+    0.000000    0.000000    0.930000    2.000000 Uiso  1.0000
 Cl1_A1_n466 Cl1-    0.242100    0.768700    0.930000    2.000000 Uiso  1.0000
 Cl2_A1_n466 Cl1-    0.757900    0.231300    0.930000    2.000000 Uiso  1.0000
 Cl3_A1_n466 Cl1-    0.238700    0.237100    0.930322    2.000000 Uiso  1.0000
 Cl4_A1_n466 Cl1-    0.761300    0.762900    0.930322    2.000000 Uiso  1.0000
 Cl5_A1_n466 Cl1-    0.238700    0.237100    0.929678    2.000000 Uiso  1.0000
 Cl6_A1_n466 Cl1-    0.761300    0.762900    0.929678    2.000000 Uiso  1.0000
 Li3_A1_n466 Li+    0.500000    0.500000    0.930000    2.000000 Uiso  0.2700
 Sc1_A1_n467 Sc3+    0.000000    0.000000    0.932000    2.000000 Uiso  1.0000
 Cl1_A1_n467 Cl1-    0.242100    0.768700    0.932000    2.000000 Uiso  1.0000
 Cl2_A1_n467 Cl1-    0.757900    0.231300    0.932000    2.000000 Uiso  1.0000
 Cl3_A1_n467 Cl1-    0.238700    0.237100    0.932322    2.000000 Uiso  1.0000
 Cl4_A1_n467 Cl1-    0.761300    0.762900    0.932322    2.000000 Uiso  1.0000
 Cl5_A1_n467 Cl1-    0.238700    0.237100    0.931678    2.000000 Uiso  1.0000
 Cl6_A1_n467 Cl1-    0.761300    0.762900    0.931678    2.000000 Uiso  1.0000
 Li3_A1_n467 Li+    0.500000    0.500000    0.932000    2.000000 Uiso  0.2700
 Sc1_A1_n468 Sc3+    0.000000    0.000000    0.934000    2.000000 Uiso  1.0000
 Cl1_A1_n468 Cl1-    0.242100    0.768700    0.934000    2.000000 Uiso  1.0000
 Cl2_A1_n468 Cl1-    0.757900    0.231300    0.934000    2.000000 Uiso  1.0000
 Cl3_A1_n468 Cl1-    0.238700    0.237100    0.934322    2.000000 Uiso  1.0000
 Cl4_A1_n468 Cl1-    0.761300    0.762900    0.934322    2.000000 Uiso  1.0000
 Cl5_A1_n468 Cl1-    0.238700    0.237100    0.933678    2.000000 Uiso  1.0000
 Cl6_A1_n468 Cl1-    0.761300    0.762900    0.933678    2.000000 Uiso  1.0000
 Li3_A1_n468 Li+    0.500000    0.500000    0.934000    2.000000 Uiso  0.2700
 Sc1_A1_n469 Sc3+    0.000000    0.000000    0.936000    2.000000 Uiso  1.0000
 Cl1_A1_n469 Cl1-    0.242100    0.768700    0.936000    2.000000 Uiso  1.0000
 Cl2_A1_n469 Cl1-    0.757900    0.231300    0.936000    2.000000 Uiso  1.0000
 Cl3_A1_n469 Cl1-    0.238700    0.237100    0.936322    2.000000 Uiso  1.0000
 Cl4_A1_n469 Cl1-    0.761300    0.762900    0.936322    2.000000 Uiso  1.0000
 Cl5_A1_n469 Cl1-    0.238700    0.237100    0.935678    2.000000 Uiso  1.0000
 Cl6_A1_n469 Cl1-    0.761300    0.762900    0.935678    2.000000 Uiso  1.0000
 Li3_A1_n469 Li+    0.500000    0.500000    0.936000    2.000000 Uiso  0.2700
 Sc1_A1_n470 Sc3+    0.000000    0.000000    0.938000    2.000000 Uiso  1.0000
 Cl1_A1_n470 Cl1-    0.242100    0.768700    0.938000    2.000000 Uiso  1.0000
 Cl2_A1_n470 Cl1-    0.757900    0.231300    0.938000    2.000000 Uiso  1.0000
 Cl3_A1_n470 Cl1-    0.238700    0.237100    0.938322    2.000000 Uiso  1.0000
 Cl4_A1_n470 Cl1-    0.761300    0.762900    0.938322    2.000000 Uiso  1.0000
 Cl5_A1_n470 Cl1-    0.238700    0.237100    0.937678    2.000000 Uiso  1.0000
 Cl6_A1_n470 Cl1-    0.761300    0.762900    0.937678    2.000000 Uiso  1.0000
 Li3_A1_n470 Li+    0.500000    0.500000    0.938000    2.000000 Uiso  0.2700
 Sc1_A1_n471 Sc3+    0.000000    0.000000    0.940000    2.000000 Uiso  1.0000
 Cl1_A1_n471 Cl1-    0.242100    0.768700    0.940000    2.000000 Uiso  1.0000
 Cl2_A1_n471 Cl1-    0.757900    0.231300    0.940000    2.000000 Uiso  1.0000
 Cl3_A1_n471 Cl1-    0.238700    0.237100    0.940322    2.000000 Uiso  1.0000
 Cl4_A1_n471 Cl1-    0.761300    0.762900    0.940322    2.000000 Uiso  1.0000
 Cl5_A1_n471 Cl1-    0.238700    0.237100    0.939678    2.000000 Uiso  1.0000
 Cl6_A1_n471 Cl1-    0.761300    0.762900    0.939678    2.000000 Uiso  1.0000
 Li3_A1_n471 Li+    0.500000    0.500000    0.940000    2.000000 Uiso  0.2700
 Sc1_A1_n472 Sc3+    0.000000    0.000000    0.942000    2.000000 Uiso  1.0000
 Cl1_A1_n472 Cl1-    0.242100    0.768700    0.942000    2.000000 Uiso  1.0000
 Cl2_A1_n472 Cl1-    0.757900    0.231300    0.942000    2.000000 Uiso  1.0000
 Cl3_A1_n472 Cl1-    0.238700    0.237100    0.942322    2.000000 Uiso  1.0000
 Cl4_A1_n472 Cl1-    0.761300    0.762900    0.942322    2.000000 Uiso  1.0000
 Cl5_A1_n472 Cl1-    0.238700    0.237100    0.941678    2.000000 Uiso  1.0000
 Cl6_A1_n472 Cl1-    0.761300    0.762900    0.941678    2.000000 Uiso  1.0000
 Li3_A1_n472 Li+    0.500000    0.500000    0.942000    2.000000 Uiso  0.2700
 Sc1_A1_n473 Sc3+    0.000000    0.000000    0.944000    2.000000 Uiso  1.0000
 Cl1_A1_n473 Cl1-    0.242100    0.768700    0.944000    2.000000 Uiso  1.0000
 Cl2_A1_n473 Cl1-    0.757900    0.231300    0.944000    2.000000 Uiso  1.0000
 Cl3_A1_n473 Cl1-    0.238700    0.237100    0.944322    2.000000 Uiso  1.0000
 Cl4_A1_n473 Cl1-    0.761300    0.762900    0.944322    2.000000 Uiso  1.0000
 Cl5_A1_n473 Cl1-    0.238700    0.237100    0.943678    2.000000 Uiso  1.0000
 Cl6_A1_n473 Cl1-    0.761300    0.762900    0.943678    2.000000 Uiso  1.0000
 Li3_A1_n473 Li+    0.500000    0.500000    0.944000    2.000000 Uiso  0.2700
 Sc1_A1_n474 Sc3+    0.000000    0.000000    0.946000    2.000000 Uiso  1.0000
 Cl1_A1_n474 Cl1-    0.242100    0.768700    0.946000    2.000000 Uiso  1.0000
 Cl2_A1_n474 Cl1-    0.757900    0.231300    0.946000    2.000000 Uiso  1.0000
 Cl3_A1_n474 Cl1-    0.238700    0.237100    0.946322    2.000000 Uiso  1.0000
 Cl4_A1_n474 Cl1-    0.761300    0.762900    0.946322    2.000000 Uiso  1.0000
 Cl5_A1_n474 Cl1-    0.238700    0.237100    0.945678    2.000000 Uiso  1.0000
 Cl6_A1_n474 Cl1-    0.761300    0.762900    0.945678    2.000000 Uiso  1.0000
 Li3_A1_n474 Li+    0.500000    0.500000    0.946000    2.000000 Uiso  0.2700
 Sc1_A1_n475 Sc3+    0.000000    0.000000    0.948000    2.000000 Uiso  1.0000
 Cl1_A1_n475 Cl1-    0.242100    0.768700    0.948000    2.000000 Uiso  1.0000
 Cl2_A1_n475 Cl1-    0.757900    0.231300    0.948000    2.000000 Uiso  1.0000
 Cl3_A1_n475 Cl1-    0.238700    0.237100    0.948322    2.000000 Uiso  1.0000
 Cl4_A1_n475 Cl1-    0.761300    0.762900    0.948322    2.000000 Uiso  1.0000
 Cl5_A1_n475 Cl1-    0.238700    0.237100    0.947678    2.000000 Uiso  1.0000
 Cl6_A1_n475 Cl1-    0.761300    0.762900    0.947678    2.000000 Uiso  1.0000
 Li3_A1_n475 Li+    0.500000    0.500000    0.948000    2.000000 Uiso  0.2700
 Sc1_A1_n476 Sc3+    0.000000    0.000000    0.950000    2.000000 Uiso  1.0000
 Cl1_A1_n476 Cl1-    0.242100    0.768700    0.950000    2.000000 Uiso  1.0000
 Cl2_A1_n476 Cl1-    0.757900    0.231300    0.950000    2.000000 Uiso  1.0000
 Cl3_A1_n476 Cl1-    0.238700    0.237100    0.950322    2.000000 Uiso  1.0000
 Cl4_A1_n476 Cl1-    0.761300    0.762900    0.950322    2.000000 Uiso  1.0000
 Cl5_A1_n476 Cl1-    0.238700    0.237100    0.949678    2.000000 Uiso  1.0000
 Cl6_A1_n476 Cl1-    0.761300    0.762900    0.949678    2.000000 Uiso  1.0000
 Li3_A1_n476 Li+    0.500000    0.500000    0.950000    2.000000 Uiso  0.2700
 Sc1_A1_n477 Sc3+    0.000000    0.000000    0.952000    2.000000 Uiso  1.0000
 Cl1_A1_n477 Cl1-    0.242100    0.768700    0.952000    2.000000 Uiso  1.0000
 Cl2_A1_n477 Cl1-    0.757900    0.231300    0.952000    2.000000 Uiso  1.0000
 Cl3_A1_n477 Cl1-    0.238700    0.237100    0.952322    2.000000 Uiso  1.0000
 Cl4_A1_n477 Cl1-    0.761300    0.762900    0.952322    2.000000 Uiso  1.0000
 Cl5_A1_n477 Cl1-    0.238700    0.237100    0.951678    2.000000 Uiso  1.0000
 Cl6_A1_n477 Cl1-    0.761300    0.762900    0.951678    2.000000 Uiso  1.0000
 Li3_A1_n477 Li+    0.500000    0.500000    0.952000    2.000000 Uiso  0.2700
 Sc1_A1_n478 Sc3+    0.000000    0.000000    0.954000    2.000000 Uiso  1.0000
 Cl1_A1_n478 Cl1-    0.242100    0.768700    0.954000    2.000000 Uiso  1.0000
 Cl2_A1_n478 Cl1-    0.757900    0.231300    0.954000    2.000000 Uiso  1.0000
 Cl3_A1_n478 Cl1-    0.238700    0.237100    0.954322    2.000000 Uiso  1.0000
 Cl4_A1_n478 Cl1-    0.761300    0.762900    0.954322    2.000000 Uiso  1.0000
 Cl5_A1_n478 Cl1-    0.238700    0.237100    0.953678    2.000000 Uiso  1.0000
 Cl6_A1_n478 Cl1-    0.761300    0.762900    0.953678    2.000000 Uiso  1.0000
 Li3_A1_n478 Li+    0.500000    0.500000    0.954000    2.000000 Uiso  0.2700
 Sc1_A1_n479 Sc3+    0.000000    0.000000    0.956000    2.000000 Uiso  1.0000
 Cl1_A1_n479 Cl1-    0.242100    0.768700    0.956000    2.000000 Uiso  1.0000
 Cl2_A1_n479 Cl1-    0.757900    0.231300    0.956000    2.000000 Uiso  1.0000
 Cl3_A1_n479 Cl1-    0.238700    0.237100    0.956322    2.000000 Uiso  1.0000
 Cl4_A1_n479 Cl1-    0.761300    0.762900    0.956322    2.000000 Uiso  1.0000
 Cl5_A1_n479 Cl1-    0.238700    0.237100    0.955678    2.000000 Uiso  1.0000
 Cl6_A1_n479 Cl1-    0.761300    0.762900    0.955678    2.000000 Uiso  1.0000
 Li3_A1_n479 Li+    0.500000    0.500000    0.956000    2.000000 Uiso  0.2700
 Sc1_A1_n480 Sc3+    0.000000    0.000000    0.958000    2.000000 Uiso  1.0000
 Cl1_A1_n480 Cl1-    0.242100    0.768700    0.958000    2.000000 Uiso  1.0000
 Cl2_A1_n480 Cl1-    0.757900    0.231300    0.958000    2.000000 Uiso  1.0000
 Cl3_A1_n480 Cl1-    0.238700    0.237100    0.958322    2.000000 Uiso  1.0000
 Cl4_A1_n480 Cl1-    0.761300    0.762900    0.958322    2.000000 Uiso  1.0000
 Cl5_A1_n480 Cl1-    0.238700    0.237100    0.957678    2.000000 Uiso  1.0000
 Cl6_A1_n480 Cl1-    0.761300    0.762900    0.957678    2.000000 Uiso  1.0000
 Li3_A1_n480 Li+    0.500000    0.500000    0.958000    2.000000 Uiso  0.2700
 Sc1_A1_n481 Sc3+    0.000000    0.000000    0.960000    2.000000 Uiso  1.0000
 Cl1_A1_n481 Cl1-    0.242100    0.768700    0.960000    2.000000 Uiso  1.0000
 Cl2_A1_n481 Cl1-    0.757900    0.231300    0.960000    2.000000 Uiso  1.0000
 Cl3_A1_n481 Cl1-    0.238700    0.237100    0.960322    2.000000 Uiso  1.0000
 Cl4_A1_n481 Cl1-    0.761300    0.762900    0.960322    2.000000 Uiso  1.0000
 Cl5_A1_n481 Cl1-    0.238700    0.237100    0.959678    2.000000 Uiso  1.0000
 Cl6_A1_n481 Cl1-    0.761300    0.762900    0.959678    2.000000 Uiso  1.0000
 Li3_A1_n481 Li+    0.500000    0.500000    0.960000    2.000000 Uiso  0.2700
 Sc1_A1_n482 Sc3+    0.000000    0.000000    0.962000    2.000000 Uiso  1.0000
 Cl1_A1_n482 Cl1-    0.242100    0.768700    0.962000    2.000000 Uiso  1.0000
 Cl2_A1_n482 Cl1-    0.757900    0.231300    0.962000    2.000000 Uiso  1.0000
 Cl3_A1_n482 Cl1-    0.238700    0.237100    0.962322    2.000000 Uiso  1.0000
 Cl4_A1_n482 Cl1-    0.761300    0.762900    0.962322    2.000000 Uiso  1.0000
 Cl5_A1_n482 Cl1-    0.238700    0.237100    0.961678    2.000000 Uiso  1.0000
 Cl6_A1_n482 Cl1-    0.761300    0.762900    0.961678    2.000000 Uiso  1.0000
 Li3_A1_n482 Li+    0.500000    0.500000    0.962000    2.000000 Uiso  0.2700
 Sc1_A1_n483 Sc3+    0.000000    0.000000    0.964000    2.000000 Uiso  1.0000
 Cl1_A1_n483 Cl1-    0.242100    0.768700    0.964000    2.000000 Uiso  1.0000
 Cl2_A1_n483 Cl1-    0.757900    0.231300    0.964000    2.000000 Uiso  1.0000
 Cl3_A1_n483 Cl1-    0.238700    0.237100    0.964322    2.000000 Uiso  1.0000
 Cl4_A1_n483 Cl1-    0.761300    0.762900    0.964322    2.000000 Uiso  1.0000
 Cl5_A1_n483 Cl1-    0.238700    0.237100    0.963678    2.000000 Uiso  1.0000
 Cl6_A1_n483 Cl1-    0.761300    0.762900    0.963678    2.000000 Uiso  1.0000
 Li3_A1_n483 Li+    0.500000    0.500000    0.964000    2.000000 Uiso  0.2700
 Sc1_A1_n484 Sc3+    0.000000    0.000000    0.966000    2.000000 Uiso  1.0000
 Cl1_A1_n484 Cl1-    0.242100    0.768700    0.966000    2.000000 Uiso  1.0000
 Cl2_A1_n484 Cl1-    0.757900    0.231300    0.966000    2.000000 Uiso  1.0000
 Cl3_A1_n484 Cl1-    0.238700    0.237100    0.966322    2.000000 Uiso  1.0000
 Cl4_A1_n484 Cl1-    0.761300    0.762900    0.966322    2.000000 Uiso  1.0000
 Cl5_A1_n484 Cl1-    0.238700    0.237100    0.965678    2.000000 Uiso  1.0000
 Cl6_A1_n484 Cl1-    0.761300    0.762900    0.965678    2.000000 Uiso  1.0000
 Li3_A1_n484 Li+    0.500000    0.500000    0.966000    2.000000 Uiso  0.2700
 Sc1_A1_n485 Sc3+    0.000000    0.000000    0.968000    2.000000 Uiso  1.0000
 Cl1_A1_n485 Cl1-    0.242100    0.768700    0.968000    2.000000 Uiso  1.0000
 Cl2_A1_n485 Cl1-    0.757900    0.231300    0.968000    2.000000 Uiso  1.0000
 Cl3_A1_n485 Cl1-    0.238700    0.237100    0.968322    2.000000 Uiso  1.0000
 Cl4_A1_n485 Cl1-    0.761300    0.762900    0.968322    2.000000 Uiso  1.0000
 Cl5_A1_n485 Cl1-    0.238700    0.237100    0.967678    2.000000 Uiso  1.0000
 Cl6_A1_n485 Cl1-    0.761300    0.762900    0.967678    2.000000 Uiso  1.0000
 Li3_A1_n485 Li+    0.500000    0.500000    0.968000    2.000000 Uiso  0.2700
 Sc1_A1_n486 Sc3+    0.000000    0.000000    0.970000    2.000000 Uiso  1.0000
 Cl1_A1_n486 Cl1-    0.242100    0.768700    0.970000    2.000000 Uiso  1.0000
 Cl2_A1_n486 Cl1-    0.757900    0.231300    0.970000    2.000000 Uiso  1.0000
 Cl3_A1_n486 Cl1-    0.238700    0.237100    0.970322    2.000000 Uiso  1.0000
 Cl4_A1_n486 Cl1-    0.761300    0.762900    0.970322    2.000000 Uiso  1.0000
 Cl5_A1_n486 Cl1-    0.238700    0.237100    0.969678    2.000000 Uiso  1.0000
 Cl6_A1_n486 Cl1-    0.761300    0.762900    0.969678    2.000000 Uiso  1.0000
 Li3_A1_n486 Li+    0.500000    0.500000    0.970000    2.000000 Uiso  0.2700
 Sc1_A1_n487 Sc3+    0.000000    0.000000    0.972000    2.000000 Uiso  1.0000
 Cl1_A1_n487 Cl1-    0.242100    0.768700    0.972000    2.000000 Uiso  1.0000
 Cl2_A1_n487 Cl1-    0.757900    0.231300    0.972000    2.000000 Uiso  1.0000
 Cl3_A1_n487 Cl1-    0.238700    0.237100    0.972322    2.000000 Uiso  1.0000
 Cl4_A1_n487 Cl1-    0.761300    0.762900    0.972322    2.000000 Uiso  1.0000
 Cl5_A1_n487 Cl1-    0.238700    0.237100    0.971678    2.000000 Uiso  1.0000
 Cl6_A1_n487 Cl1-    0.761300    0.762900    0.971678    2.000000 Uiso  1.0000
 Li3_A1_n487 Li+    0.500000    0.500000    0.972000    2.000000 Uiso  0.2700
 Sc1_A1_n488 Sc3+    0.000000    0.000000    0.974000    2.000000 Uiso  1.0000
 Cl1_A1_n488 Cl1-    0.242100    0.768700    0.974000    2.000000 Uiso  1.0000
 Cl2_A1_n488 Cl1-    0.757900    0.231300    0.974000    2.000000 Uiso  1.0000
 Cl3_A1_n488 Cl1-    0.238700    0.237100    0.974322    2.000000 Uiso  1.0000
 Cl4_A1_n488 Cl1-    0.761300    0.762900    0.974322    2.000000 Uiso  1.0000
 Cl5_A1_n488 Cl1-    0.238700    0.237100    0.973678    2.000000 Uiso  1.0000
 Cl6_A1_n488 Cl1-    0.761300    0.762900    0.973678    2.000000 Uiso  1.0000
 Li3_A1_n488 Li+    0.500000    0.500000    0.974000    2.000000 Uiso  0.2700
 Sc1_A1_n489 Sc3+    0.000000    0.000000    0.976000    2.000000 Uiso  1.0000
 Cl1_A1_n489 Cl1-    0.242100    0.768700    0.976000    2.000000 Uiso  1.0000
 Cl2_A1_n489 Cl1-    0.757900    0.231300    0.976000    2.000000 Uiso  1.0000
 Cl3_A1_n489 Cl1-    0.238700    0.237100    0.976322    2.000000 Uiso  1.0000
 Cl4_A1_n489 Cl1-    0.761300    0.762900    0.976322    2.000000 Uiso  1.0000
 Cl5_A1_n489 Cl1-    0.238700    0.237100    0.975678    2.000000 Uiso  1.0000
 Cl6_A1_n489 Cl1-    0.761300    0.762900    0.975678    2.000000 Uiso  1.0000
 Li3_A1_n489 Li+    0.500000    0.500000    0.976000    2.000000 Uiso  0.2700
 Sc1_A1_n490 Sc3+    0.000000    0.000000    0.978000    2.000000 Uiso  1.0000
 Cl1_A1_n490 Cl1-    0.242100    0.768700    0.978000    2.000000 Uiso  1.0000
 Cl2_A1_n490 Cl1-    0.757900    0.231300    0.978000    2.000000 Uiso  1.0000
 Cl3_A1_n490 Cl1-    0.238700    0.237100    0.978322    2.000000 Uiso  1.0000
 Cl4_A1_n490 Cl1-    0.761300    0.762900    0.978322    2.000000 Uiso  1.0000
 Cl5_A1_n490 Cl1-    0.238700    0.237100    0.977678    2.000000 Uiso  1.0000
 Cl6_A1_n490 Cl1-    0.761300    0.762900    0.977678    2.000000 Uiso  1.0000
 Li3_A1_n490 Li+    0.500000    0.500000    0.978000    2.000000 Uiso  0.2700
 Sc1_A1_n491 Sc3+    0.000000    0.000000    0.980000    2.000000 Uiso  1.0000
 Cl1_A1_n491 Cl1-    0.242100    0.768700    0.980000    2.000000 Uiso  1.0000
 Cl2_A1_n491 Cl1-    0.757900    0.231300    0.980000    2.000000 Uiso  1.0000
 Cl3_A1_n491 Cl1-    0.238700    0.237100    0.980322    2.000000 Uiso  1.0000
 Cl4_A1_n491 Cl1-    0.761300    0.762900    0.980322    2.000000 Uiso  1.0000
 Cl5_A1_n491 Cl1-    0.238700    0.237100    0.979678    2.000000 Uiso  1.0000
 Cl6_A1_n491 Cl1-    0.761300    0.762900    0.979678    2.000000 Uiso  1.0000
 Li3_A1_n491 Li+    0.500000    0.500000    0.980000    2.000000 Uiso  0.2700
 Sc1_A1_n492 Sc3+    0.000000    0.000000    0.982000    2.000000 Uiso  1.0000
 Cl1_A1_n492 Cl1-    0.242100    0.768700    0.982000    2.000000 Uiso  1.0000
 Cl2_A1_n492 Cl1-    0.757900    0.231300    0.982000    2.000000 Uiso  1.0000
 Cl3_A1_n492 Cl1-    0.238700    0.237100    0.982322    2.000000 Uiso  1.0000
 Cl4_A1_n492 Cl1-    0.761300    0.762900    0.982322    2.000000 Uiso  1.0000
 Cl5_A1_n492 Cl1-    0.238700    0.237100    0.981678    2.000000 Uiso  1.0000
 Cl6_A1_n492 Cl1-    0.761300    0.762900    0.981678    2.000000 Uiso  1.0000
 Li3_A1_n492 Li+    0.500000    0.500000    0.982000    2.000000 Uiso  0.2700
 Sc1_A1_n493 Sc3+    0.000000    0.000000    0.984000    2.000000 Uiso  1.0000
 Cl1_A1_n493 Cl1-    0.242100    0.768700    0.984000    2.000000 Uiso  1.0000
 Cl2_A1_n493 Cl1-    0.757900    0.231300    0.984000    2.000000 Uiso  1.0000
 Cl3_A1_n493 Cl1-    0.238700    0.237100    0.984322    2.000000 Uiso  1.0000
 Cl4_A1_n493 Cl1-    0.761300    0.762900    0.984322    2.000000 Uiso  1.0000
 Cl5_A1_n493 Cl1-    0.238700    0.237100    0.983678    2.000000 Uiso  1.0000
 Cl6_A1_n493 Cl1-    0.761300    0.762900    0.983678    2.000000 Uiso  1.0000
 Li3_A1_n493 Li+    0.500000    0.500000    0.984000    2.000000 Uiso  0.2700
 Sc1_A1_n494 Sc3+    0.000000    0.000000    0.986000    2.000000 Uiso  1.0000
 Cl1_A1_n494 Cl1-    0.242100    0.768700    0.986000    2.000000 Uiso  1.0000
 Cl2_A1_n494 Cl1-    0.757900    0.231300    0.986000    2.000000 Uiso  1.0000
 Cl3_A1_n494 Cl1-    0.238700    0.237100    0.986322    2.000000 Uiso  1.0000
 Cl4_A1_n494 Cl1-    0.761300    0.762900    0.986322    2.000000 Uiso  1.0000
 Cl5_A1_n494 Cl1-    0.238700    0.237100    0.985678    2.000000 Uiso  1.0000
 Cl6_A1_n494 Cl1-    0.761300    0.762900    0.985678    2.000000 Uiso  1.0000
 Li3_A1_n494 Li+    0.500000    0.500000    0.986000    2.000000 Uiso  0.2700
 Sc1_A1_n495 Sc3+    0.000000    0.000000    0.988000    2.000000 Uiso  1.0000
 Cl1_A1_n495 Cl1-    0.242100    0.768700    0.988000    2.000000 Uiso  1.0000
 Cl2_A1_n495 Cl1-    0.757900    0.231300    0.988000    2.000000 Uiso  1.0000
 Cl3_A1_n495 Cl1-    0.238700    0.237100    0.988322    2.000000 Uiso  1.0000
 Cl4_A1_n495 Cl1-    0.761300    0.762900    0.988322    2.000000 Uiso  1.0000
 Cl5_A1_n495 Cl1-    0.238700    0.237100    0.987678    2.000000 Uiso  1.0000
 Cl6_A1_n495 Cl1-    0.761300    0.762900    0.987678    2.000000 Uiso  1.0000
 Li3_A1_n495 Li+    0.500000    0.500000    0.988000    2.000000 Uiso  0.2700
 Sc1_A1_n496 Sc3+    0.000000    0.000000    0.990000    2.000000 Uiso  1.0000
 Cl1_A1_n496 Cl1-    0.242100    0.768700    0.990000    2.000000 Uiso  1.0000
 Cl2_A1_n496 Cl1-    0.757900    0.231300    0.990000    2.000000 Uiso  1.0000
 Cl3_A1_n496 Cl1-    0.238700    0.237100    0.990322    2.000000 Uiso  1.0000
 Cl4_A1_n496 Cl1-    0.761300    0.762900    0.990322    2.000000 Uiso  1.0000
 Cl5_A1_n496 Cl1-    0.238700    0.237100    0.989678    2.000000 Uiso  1.0000
 Cl6_A1_n496 Cl1-    0.761300    0.762900    0.989678    2.000000 Uiso  1.0000
 Li3_A1_n496 Li+    0.500000    0.500000    0.990000    2.000000 Uiso  0.2700
 Sc1_A1_n497 Sc3+    0.000000    0.000000    0.992000    2.000000 Uiso  1.0000
 Cl1_A1_n497 Cl1-    0.242100    0.768700    0.992000    2.000000 Uiso  1.0000
 Cl2_A1_n497 Cl1-    0.757900    0.231300    0.992000    2.000000 Uiso  1.0000
 Cl3_A1_n497 Cl1-    0.238700    0.237100    0.992322    2.000000 Uiso  1.0000
 Cl4_A1_n497 Cl1-    0.761300    0.762900    0.992322    2.000000 Uiso  1.0000
 Cl5_A1_n497 Cl1-    0.238700    0.237100    0.991678    2.000000 Uiso  1.0000
 Cl6_A1_n497 Cl1-    0.761300    0.762900    0.991678    2.000000 Uiso  1.0000
 Li3_A1_n497 Li+    0.500000    0.500000    0.992000    2.000000 Uiso  0.2700
 Sc1_A1_n498 Sc3+    0.000000    0.000000    0.994000    2.000000 Uiso  1.0000
 Cl1_A1_n498 Cl1-    0.242100    0.768700    0.994000    2.000000 Uiso  1.0000
 Cl2_A1_n498 Cl1-    0.757900    0.231300    0.994000    2.000000 Uiso  1.0000
 Cl3_A1_n498 Cl1-    0.238700    0.237100    0.994322    2.000000 Uiso  1.0000
 Cl4_A1_n498 Cl1-    0.761300    0.762900    0.994322    2.000000 Uiso  1.0000
 Cl5_A1_n498 Cl1-    0.238700    0.237100    0.993678    2.000000 Uiso  1.0000
 Cl6_A1_n498 Cl1-    0.761300    0.762900    0.993678    2.000000 Uiso  1.0000
 Li3_A1_n498 Li+    0.500000    0.500000    0.994000    2.000000 Uiso  0.2700
 Sc1_A1_n499 Sc3+    0.000000    0.000000    0.996000    2.000000 Uiso  1.0000
 Cl1_A1_n499 Cl1-    0.242100    0.768700    0.996000    2.000000 Uiso  1.0000
 Cl2_A1_n499 Cl1-    0.757900    0.231300    0.996000    2.000000 Uiso  1.0000
 Cl3_A1_n499 Cl1-    0.238700    0.237100    0.996322    2.000000 Uiso  1.0000
 Cl4_A1_n499 Cl1-    0.761300    0.762900    0.996322    2.000000 Uiso  1.0000
 Cl5_A1_n499 Cl1-    0.238700    0.237100    0.995678    2.000000 Uiso  1.0000
 Cl6_A1_n499 Cl1-    0.761300    0.762900    0.995678    2.000000 Uiso  1.0000
 Li3_A1_n499 Li+    0.500000    0.500000    0.996000    2.000000 Uiso  0.2700
 Sc1_A1_n500 Sc3+    0.000000    0.000000    0.998000    2.000000 Uiso  1.0000
 Cl1_A1_n500 Cl1-    0.242100    0.768700    0.998000    2.000000 Uiso  1.0000
 Cl2_A1_n500 Cl1-    0.757900    0.231300    0.998000    2.000000 Uiso  1.0000
 Cl3_A1_n500 Cl1-    0.238700    0.237100    0.998322    2.000000 Uiso  1.0000
 Cl4_A1_n500 Cl1-    0.761300    0.762900    0.998322    2.000000 Uiso  1.0000
 Cl5_A1_n500 Cl1-    0.238700    0.237100    0.997678    2.000000 Uiso  1.0000
 Cl6_A1_n500 Cl1-    0.761300    0.762900    0.997678    2.000000 Uiso  1.0000
 Li3_A1_n500 Li+    0.500000    0.500000    0.998000    2.000000 Uiso  0.2700
 Li1_B1_n1 Li+    0.500000    0.000000    0.000338    2.000000 Uiso  1.0000
 Li2_B1_n1 Li+    0.000000    0.500000    0.000338    2.000000 Uiso  0.3650
 Li1_B1_n2 Li+    0.500000    0.000000    0.002338    2.000000 Uiso  1.0000
 Li2_B1_n2 Li+    0.000000    0.500000    0.002338    2.000000 Uiso  0.3650
 Li1_B1_n3 Li+    0.500000    0.000000    0.004338    2.000000 Uiso  1.0000
 Li2_B1_n3 Li+    0.000000    0.500000    0.004338    2.000000 Uiso  0.3650
 Li1_B1_n4 Li+    0.500000    0.000000    0.006338    2.000000 Uiso  1.0000
 Li2_B1_n4 Li+    0.000000    0.500000    0.006338    2.000000 Uiso  0.3650
 Li1_B1_n5 Li+    0.500000    0.000000    0.008338    2.000000 Uiso  1.0000
 Li2_B1_n5 Li+    0.000000    0.500000    0.008338    2.000000 Uiso  0.3650
 Li1_B1_n6 Li+    0.500000    0.000000    0.010338    2.000000 Uiso  1.0000
 Li2_B1_n6 Li+    0.000000    0.500000    0.010338    2.000000 Uiso  0.3650
 Li1_B1_n7 Li+    0.500000    0.000000    0.012338    2.000000 Uiso  1.0000
 Li2_B1_n7 Li+    0.000000    0.500000    0.012338    2.000000 Uiso  0.3650
 Li1_B1_n8 Li+    0.500000    0.000000    0.014338    2.000000 Uiso  1.0000
 Li2_B1_n8 Li+    0.000000    0.500000    0.014338    2.000000 Uiso  0.3650
 Li1_B1_n9 Li+    0.500000    0.000000    0.016338    2.000000 Uiso  1.0000
 Li2_B1_n9 Li+    0.000000    0.500000    0.016338    2.000000 Uiso  0.3650
 Li1_B1_n10 Li+    0.500000    0.000000    0.018338    2.000000 Uiso  1.0000
 Li2_B1_n10 Li+    0.000000    0.500000    0.018338    2.000000 Uiso  0.3650
 Li1_B1_n11 Li+    0.500000    0.000000    0.020338    2.000000 Uiso  1.0000
 Li2_B1_n11 Li+    0.000000    0.500000    0.020338    2.000000 Uiso  0.3650
 Li1_B1_n12 Li+    0.500000    0.000000    0.022338    2.000000 Uiso  1.0000
 Li2_B1_n12 Li+    0.000000    0.500000    0.022338    2.000000 Uiso  0.3650
 Li1_B1_n13 Li+    0.500000    0.000000    0.024338    2.000000 Uiso  1.0000
 Li2_B1_n13 Li+    0.000000    0.500000    0.024338    2.000000 Uiso  0.3650
 Li1_B1_n14 Li+    0.500000    0.000000    0.026338    2.000000 Uiso  1.0000
 Li2_B1_n14 Li+    0.000000    0.500000    0.026338    2.000000 Uiso  0.3650
 Li1_B1_n15 Li+    0.500000    0.000000    0.028338    2.000000 Uiso  1.0000
 Li2_B1_n15 Li+    0.000000    0.500000    0.028338    2.000000 Uiso  0.3650
 Li1_B1_n16 Li+    0.500000    0.000000    0.030338    2.000000 Uiso  1.0000
 Li2_B1_n16 Li+    0.000000    0.500000    0.030338    2.000000 Uiso  0.3650
 Li1_B1_n17 Li+    0.500000    0.000000    0.032338    2.000000 Uiso  1.0000
 Li2_B1_n17 Li+    0.000000    0.500000    0.032338    2.000000 Uiso  0.3650
 Li1_B1_n18 Li+    0.500000    0.000000    0.034338    2.000000 Uiso  1.0000
 Li2_B1_n18 Li+    0.000000    0.500000    0.034338    2.000000 Uiso  0.3650
 Li1_B1_n19 Li+    0.500000    0.000000    0.036338    2.000000 Uiso  1.0000
 Li2_B1_n19 Li+    0.000000    0.500000    0.036338    2.000000 Uiso  0.3650
 Li1_B1_n20 Li+    0.500000    0.000000    0.038338    2.000000 Uiso  1.0000
 Li2_B1_n20 Li+    0.000000    0.500000    0.038338    2.000000 Uiso  0.3650
 Li1_B1_n21 Li+    0.500000    0.000000    0.040338    2.000000 Uiso  1.0000
 Li2_B1_n21 Li+    0.000000    0.500000    0.040338    2.000000 Uiso  0.3650
 Li1_B1_n22 Li+    0.500000    0.000000    0.042338    2.000000 Uiso  1.0000
 Li2_B1_n22 Li+    0.000000    0.500000    0.042338    2.000000 Uiso  0.3650
 Li1_B1_n23 Li+    0.500000    0.000000    0.044338    2.000000 Uiso  1.0000
 Li2_B1_n23 Li+    0.000000    0.500000    0.044338    2.000000 Uiso  0.3650
 Li1_B1_n24 Li+    0.500000    0.000000    0.046338    2.000000 Uiso  1.0000
 Li2_B1_n24 Li+    0.000000    0.500000    0.046338    2.000000 Uiso  0.3650
 Li1_B1_n25 Li+    0.500000    0.000000    0.048338    2.000000 Uiso  1.0000
 Li2_B1_n25 Li+    0.000000    0.500000    0.048338    2.000000 Uiso  0.3650
 Li1_B1_n26 Li+    0.500000    0.000000    0.050338    2.000000 Uiso  1.0000
 Li2_B1_n26 Li+    0.000000    0.500000    0.050338    2.000000 Uiso  0.3650
 Li1_B1_n27 Li+    0.500000    0.000000    0.052338    2.000000 Uiso  1.0000
 Li2_B1_n27 Li+    0.000000    0.500000    0.052338    2.000000 Uiso  0.3650
 Li1_B1_n28 Li+    0.500000    0.000000    0.054338    2.000000 Uiso  1.0000
 Li2_B1_n28 Li+    0.000000    0.500000    0.054338    2.000000 Uiso  0.3650
 Li1_B1_n29 Li+    0.500000    0.000000    0.056338    2.000000 Uiso  1.0000
 Li2_B1_n29 Li+    0.000000    0.500000    0.056338    2.000000 Uiso  0.3650
 Li1_B1_n30 Li+    0.500000    0.000000    0.058338    2.000000 Uiso  1.0000
 Li2_B1_n30 Li+    0.000000    0.500000    0.058338    2.000000 Uiso  0.3650
 Li1_B1_n31 Li+    0.500000    0.000000    0.060338    2.000000 Uiso  1.0000
 Li2_B1_n31 Li+    0.000000    0.500000    0.060338    2.000000 Uiso  0.3650
 Li1_B1_n32 Li+    0.500000    0.000000    0.062338    2.000000 Uiso  1.0000
 Li2_B1_n32 Li+    0.000000    0.500000    0.062338    2.000000 Uiso  0.3650
 Li1_B1_n33 Li+    0.500000    0.000000    0.064338    2.000000 Uiso  1.0000
 Li2_B1_n33 Li+    0.000000    0.500000    0.064338    2.000000 Uiso  0.3650
 Li1_B1_n34 Li+    0.500000    0.000000    0.066338    2.000000 Uiso  1.0000
 Li2_B1_n34 Li+    0.000000    0.500000    0.066338    2.000000 Uiso  0.3650
 Li1_B1_n35 Li+    0.500000    0.000000    0.068338    2.000000 Uiso  1.0000
 Li2_B1_n35 Li+    0.000000    0.500000    0.068338    2.000000 Uiso  0.3650
 Li1_B1_n36 Li+    0.500000    0.000000    0.070338    2.000000 Uiso  1.0000
 Li2_B1_n36 Li+    0.000000    0.500000    0.070338    2.000000 Uiso  0.3650
 Li1_B1_n37 Li+    0.500000    0.000000    0.072338    2.000000 Uiso  1.0000
 Li2_B1_n37 Li+    0.000000    0.500000    0.072338    2.000000 Uiso  0.3650
 Li1_B1_n38 Li+    0.500000    0.000000    0.074338    2.000000 Uiso  1.0000
 Li2_B1_n38 Li+    0.000000    0.500000    0.074338    2.000000 Uiso  0.3650
 Li1_B1_n39 Li+    0.500000    0.000000    0.076338    2.000000 Uiso  1.0000
 Li2_B1_n39 Li+    0.000000    0.500000    0.076338    2.000000 Uiso  0.3650
 Li1_B1_n40 Li+    0.500000    0.000000    0.078338    2.000000 Uiso  1.0000
 Li2_B1_n40 Li+    0.000000    0.500000    0.078338    2.000000 Uiso  0.3650
 Li1_B1_n41 Li+    0.500000    0.000000    0.080338    2.000000 Uiso  1.0000
 Li2_B1_n41 Li+    0.000000    0.500000    0.080338    2.000000 Uiso  0.3650
 Li1_B1_n42 Li+    0.500000    0.000000    0.082338    2.000000 Uiso  1.0000
 Li2_B1_n42 Li+    0.000000    0.500000    0.082338    2.000000 Uiso  0.3650
 Li1_B1_n43 Li+    0.500000    0.000000    0.084338    2.000000 Uiso  1.0000
 Li2_B1_n43 Li+    0.000000    0.500000    0.084338    2.000000 Uiso  0.3650
 Li1_B1_n44 Li+    0.500000    0.000000    0.086338    2.000000 Uiso  1.0000
 Li2_B1_n44 Li+    0.000000    0.500000    0.086338    2.000000 Uiso  0.3650
 Li1_B1_n45 Li+    0.500000    0.000000    0.088338    2.000000 Uiso  1.0000
 Li2_B1_n45 Li+    0.000000    0.500000    0.088338    2.000000 Uiso  0.3650
 Li1_B1_n46 Li+    0.500000    0.000000    0.090338    2.000000 Uiso  1.0000
 Li2_B1_n46 Li+    0.000000    0.500000    0.090338    2.000000 Uiso  0.3650
 Li1_B1_n47 Li+    0.500000    0.000000    0.092338    2.000000 Uiso  1.0000
 Li2_B1_n47 Li+    0.000000    0.500000    0.092338    2.000000 Uiso  0.3650
 Li1_B1_n48 Li+    0.500000    0.000000    0.094338    2.000000 Uiso  1.0000
 Li2_B1_n48 Li+    0.000000    0.500000    0.094338    2.000000 Uiso  0.3650
 Li1_B1_n49 Li+    0.500000    0.000000    0.096338    2.000000 Uiso  1.0000
 Li2_B1_n49 Li+    0.000000    0.500000    0.096338    2.000000 Uiso  0.3650
 Li1_B1_n50 Li+    0.500000    0.000000    0.098338    2.000000 Uiso  1.0000
 Li2_B1_n50 Li+    0.000000    0.500000    0.098338    2.000000 Uiso  0.3650
 Li1_B1_n51 Li+    0.500000    0.000000    0.100338    2.000000 Uiso  1.0000
 Li2_B1_n51 Li+    0.000000    0.500000    0.100338    2.000000 Uiso  0.3650
 Li1_B1_n52 Li+    0.500000    0.000000    0.102338    2.000000 Uiso  1.0000
 Li2_B1_n52 Li+    0.000000    0.500000    0.102338    2.000000 Uiso  0.3650
 Li1_B1_n53 Li+    0.500000    0.000000    0.104338    2.000000 Uiso  1.0000
 Li2_B1_n53 Li+    0.000000    0.500000    0.104338    2.000000 Uiso  0.3650
 Li1_B1_n54 Li+    0.500000    0.000000    0.106338    2.000000 Uiso  1.0000
 Li2_B1_n54 Li+    0.000000    0.500000    0.106338    2.000000 Uiso  0.3650
 Li1_B1_n55 Li+    0.500000    0.000000    0.108338    2.000000 Uiso  1.0000
 Li2_B1_n55 Li+    0.000000    0.500000    0.108338    2.000000 Uiso  0.3650
 Li1_B1_n56 Li+    0.500000    0.000000    0.110338    2.000000 Uiso  1.0000
 Li2_B1_n56 Li+    0.000000    0.500000    0.110338    2.000000 Uiso  0.3650
 Li1_B1_n57 Li+    0.500000    0.000000    0.112338    2.000000 Uiso  1.0000
 Li2_B1_n57 Li+    0.000000    0.500000    0.112338    2.000000 Uiso  0.3650
 Li1_B1_n58 Li+    0.500000    0.000000    0.114338    2.000000 Uiso  1.0000
 Li2_B1_n58 Li+    0.000000    0.500000    0.114338    2.000000 Uiso  0.3650
 Li1_B1_n59 Li+    0.500000    0.000000    0.116338    2.000000 Uiso  1.0000
 Li2_B1_n59 Li+    0.000000    0.500000    0.116338    2.000000 Uiso  0.3650
 Li1_B1_n60 Li+    0.500000    0.000000    0.118338    2.000000 Uiso  1.0000
 Li2_B1_n60 Li+    0.000000    0.500000    0.118338    2.000000 Uiso  0.3650
 Li1_B1_n61 Li+    0.500000    0.000000    0.120338    2.000000 Uiso  1.0000
 Li2_B1_n61 Li+    0.000000    0.500000    0.120338    2.000000 Uiso  0.3650
 Li1_B1_n62 Li+    0.500000    0.000000    0.122338    2.000000 Uiso  1.0000
 Li2_B1_n62 Li+    0.000000    0.500000    0.122338    2.000000 Uiso  0.3650
 Li1_B1_n63 Li+    0.500000    0.000000    0.124338    2.000000 Uiso  1.0000
 Li2_B1_n63 Li+    0.000000    0.500000    0.124338    2.000000 Uiso  0.3650
 Li1_B1_n64 Li+    0.500000    0.000000    0.126338    2.000000 Uiso  1.0000
 Li2_B1_n64 Li+    0.000000    0.500000    0.126338    2.000000 Uiso  0.3650
 Li1_B1_n65 Li+    0.500000    0.000000    0.128338    2.000000 Uiso  1.0000
 Li2_B1_n65 Li+    0.000000    0.500000    0.128338    2.000000 Uiso  0.3650
 Li1_B1_n66 Li+    0.500000    0.000000    0.130338    2.000000 Uiso  1.0000
 Li2_B1_n66 Li+    0.000000    0.500000    0.130338    2.000000 Uiso  0.3650
 Li1_B1_n67 Li+    0.500000    0.000000    0.132338    2.000000 Uiso  1.0000
 Li2_B1_n67 Li+    0.000000    0.500000    0.132338    2.000000 Uiso  0.3650
 Li1_B1_n68 Li+    0.500000    0.000000    0.134338    2.000000 Uiso  1.0000
 Li2_B1_n68 Li+    0.000000    0.500000    0.134338    2.000000 Uiso  0.3650
 Li1_B1_n69 Li+    0.500000    0.000000    0.136338    2.000000 Uiso  1.0000
 Li2_B1_n69 Li+    0.000000    0.500000    0.136338    2.000000 Uiso  0.3650
 Li1_B1_n70 Li+    0.500000    0.000000    0.138338    2.000000 Uiso  1.0000
 Li2_B1_n70 Li+    0.000000    0.500000    0.138338    2.000000 Uiso  0.3650
 Li1_B1_n71 Li+    0.500000    0.000000    0.140338    2.000000 Uiso  1.0000
 Li2_B1_n71 Li+    0.000000    0.500000    0.140338    2.000000 Uiso  0.3650
 Li1_B1_n72 Li+    0.500000    0.000000    0.142338    2.000000 Uiso  1.0000
 Li2_B1_n72 Li+    0.000000    0.500000    0.142338    2.000000 Uiso  0.3650
 Li1_B1_n73 Li+    0.500000    0.000000    0.144338    2.000000 Uiso  1.0000
 Li2_B1_n73 Li+    0.000000    0.500000    0.144338    2.000000 Uiso  0.3650
 Li1_B1_n74 Li+    0.500000    0.000000    0.146338    2.000000 Uiso  1.0000
 Li2_B1_n74 Li+    0.000000    0.500000    0.146338    2.000000 Uiso  0.3650
 Li1_B1_n75 Li+    0.500000    0.000000    0.148338    2.000000 Uiso  1.0000
 Li2_B1_n75 Li+    0.000000    0.500000    0.148338    2.000000 Uiso  0.3650
 Li1_B1_n76 Li+    0.500000    0.000000    0.150338    2.000000 Uiso  1.0000
 Li2_B1_n76 Li+    0.000000    0.500000    0.150338    2.000000 Uiso  0.3650
 Li1_B1_n77 Li+    0.500000    0.000000    0.152338    2.000000 Uiso  1.0000
 Li2_B1_n77 Li+    0.000000    0.500000    0.152338    2.000000 Uiso  0.3650
 Li1_B1_n78 Li+    0.500000    0.000000    0.154338    2.000000 Uiso  1.0000
 Li2_B1_n78 Li+    0.000000    0.500000    0.154338    2.000000 Uiso  0.3650
 Li1_B1_n79 Li+    0.500000    0.000000    0.156338    2.000000 Uiso  1.0000
 Li2_B1_n79 Li+    0.000000    0.500000    0.156338    2.000000 Uiso  0.3650
 Li1_B1_n80 Li+    0.500000    0.000000    0.158338    2.000000 Uiso  1.0000
 Li2_B1_n80 Li+    0.000000    0.500000    0.158338    2.000000 Uiso  0.3650
 Li1_B1_n81 Li+    0.500000    0.000000    0.160338    2.000000 Uiso  1.0000
 Li2_B1_n81 Li+    0.000000    0.500000    0.160338    2.000000 Uiso  0.3650
 Li1_B1_n82 Li+    0.500000    0.000000    0.162338    2.000000 Uiso  1.0000
 Li2_B1_n82 Li+    0.000000    0.500000    0.162338    2.000000 Uiso  0.3650
 Li1_B1_n83 Li+    0.500000    0.000000    0.164338    2.000000 Uiso  1.0000
 Li2_B1_n83 Li+    0.000000    0.500000    0.164338    2.000000 Uiso  0.3650
 Li1_B1_n84 Li+    0.500000    0.000000    0.166338    2.000000 Uiso  1.0000
 Li2_B1_n84 Li+    0.000000    0.500000    0.166338    2.000000 Uiso  0.3650
 Li1_B1_n85 Li+    0.500000    0.000000    0.168338    2.000000 Uiso  1.0000
 Li2_B1_n85 Li+    0.000000    0.500000    0.168338    2.000000 Uiso  0.3650
 Li1_B1_n86 Li+    0.500000    0.000000    0.170338    2.000000 Uiso  1.0000
 Li2_B1_n86 Li+    0.000000    0.500000    0.170338    2.000000 Uiso  0.3650
 Li1_B1_n87 Li+    0.500000    0.000000    0.172338    2.000000 Uiso  1.0000
 Li2_B1_n87 Li+    0.000000    0.500000    0.172338    2.000000 Uiso  0.3650
 Li1_B1_n88 Li+    0.500000    0.000000    0.174338    2.000000 Uiso  1.0000
 Li2_B1_n88 Li+    0.000000    0.500000    0.174338    2.000000 Uiso  0.3650
 Li1_B1_n89 Li+    0.500000    0.000000    0.176338    2.000000 Uiso  1.0000
 Li2_B1_n89 Li+    0.000000    0.500000    0.176338    2.000000 Uiso  0.3650
 Li1_B1_n90 Li+    0.500000    0.000000    0.178338    2.000000 Uiso  1.0000
 Li2_B1_n90 Li+    0.000000    0.500000    0.178338    2.000000 Uiso  0.3650
 Li1_B1_n91 Li+    0.500000    0.000000    0.180338    2.000000 Uiso  1.0000
 Li2_B1_n91 Li+    0.000000    0.500000    0.180338    2.000000 Uiso  0.3650
 Li1_B1_n92 Li+    0.500000    0.000000    0.182338    2.000000 Uiso  1.0000
 Li2_B1_n92 Li+    0.000000    0.500000    0.182338    2.000000 Uiso  0.3650
 Li1_B1_n93 Li+    0.500000    0.000000    0.184338    2.000000 Uiso  1.0000
 Li2_B1_n93 Li+    0.000000    0.500000    0.184338    2.000000 Uiso  0.3650
 Li1_B1_n94 Li+    0.500000    0.000000    0.186338    2.000000 Uiso  1.0000
 Li2_B1_n94 Li+    0.000000    0.500000    0.186338    2.000000 Uiso  0.3650
 Li1_B1_n95 Li+    0.500000    0.000000    0.188338    2.000000 Uiso  1.0000
 Li2_B1_n95 Li+    0.000000    0.500000    0.188338    2.000000 Uiso  0.3650
 Li1_B1_n96 Li+    0.500000    0.000000    0.190338    2.000000 Uiso  1.0000
 Li2_B1_n96 Li+    0.000000    0.500000    0.190338    2.000000 Uiso  0.3650
 Li1_B1_n97 Li+    0.500000    0.000000    0.192338    2.000000 Uiso  1.0000
 Li2_B1_n97 Li+    0.000000    0.500000    0.192338    2.000000 Uiso  0.3650
 Li1_B1_n98 Li+    0.500000    0.000000    0.194338    2.000000 Uiso  1.0000
 Li2_B1_n98 Li+    0.000000    0.500000    0.194338    2.000000 Uiso  0.3650
 Li1_B1_n99 Li+    0.500000    0.000000    0.196338    2.000000 Uiso  1.0000
 Li2_B1_n99 Li+    0.000000    0.500000    0.196338    2.000000 Uiso  0.3650
 Li1_B1_n100 Li+    0.500000    0.000000    0.198338    2.000000 Uiso  1.0000
 Li2_B1_n100 Li+    0.000000    0.500000    0.198338    2.000000 Uiso  0.3650
 Li1_B1_n101 Li+    0.500000    0.000000    0.200338    2.000000 Uiso  1.0000
 Li2_B1_n101 Li+    0.000000    0.500000    0.200338    2.000000 Uiso  0.3650
 Li1_B1_n102 Li+    0.500000    0.000000    0.202338    2.000000 Uiso  1.0000
 Li2_B1_n102 Li+    0.000000    0.500000    0.202338    2.000000 Uiso  0.3650
 Li1_B1_n103 Li+    0.500000    0.000000    0.204338    2.000000 Uiso  1.0000
 Li2_B1_n103 Li+    0.000000    0.500000    0.204338    2.000000 Uiso  0.3650
 Li1_B1_n104 Li+    0.500000    0.000000    0.206338    2.000000 Uiso  1.0000
 Li2_B1_n104 Li+    0.000000    0.500000    0.206338    2.000000 Uiso  0.3650
 Li1_B1_n105 Li+    0.500000    0.000000    0.208338    2.000000 Uiso  1.0000
 Li2_B1_n105 Li+    0.000000    0.500000    0.208338    2.000000 Uiso  0.3650
 Li1_B1_n106 Li+    0.500000    0.000000    0.210338    2.000000 Uiso  1.0000
 Li2_B1_n106 Li+    0.000000    0.500000    0.210338    2.000000 Uiso  0.3650
 Li1_B1_n107 Li+    0.500000    0.000000    0.212338    2.000000 Uiso  1.0000
 Li2_B1_n107 Li+    0.000000    0.500000    0.212338    2.000000 Uiso  0.3650
 Li1_B1_n108 Li+    0.500000    0.000000    0.214338    2.000000 Uiso  1.0000
 Li2_B1_n108 Li+    0.000000    0.500000    0.214338    2.000000 Uiso  0.3650
 Li1_B1_n109 Li+    0.500000    0.000000    0.216338    2.000000 Uiso  1.0000
 Li2_B1_n109 Li+    0.000000    0.500000    0.216338    2.000000 Uiso  0.3650
 Li1_B1_n110 Li+    0.500000    0.000000    0.218338    2.000000 Uiso  1.0000
 Li2_B1_n110 Li+    0.000000    0.500000    0.218338    2.000000 Uiso  0.3650
 Li1_B1_n111 Li+    0.500000    0.000000    0.220338    2.000000 Uiso  1.0000
 Li2_B1_n111 Li+    0.000000    0.500000    0.220338    2.000000 Uiso  0.3650
 Li1_B1_n112 Li+    0.500000    0.000000    0.222338    2.000000 Uiso  1.0000
 Li2_B1_n112 Li+    0.000000    0.500000    0.222338    2.000000 Uiso  0.3650
 Li1_B1_n113 Li+    0.500000    0.000000    0.224338    2.000000 Uiso  1.0000
 Li2_B1_n113 Li+    0.000000    0.500000    0.224338    2.000000 Uiso  0.3650
 Li1_B1_n114 Li+    0.500000    0.000000    0.226338    2.000000 Uiso  1.0000
 Li2_B1_n114 Li+    0.000000    0.500000    0.226338    2.000000 Uiso  0.3650
 Li1_B1_n115 Li+    0.500000    0.000000    0.228338    2.000000 Uiso  1.0000
 Li2_B1_n115 Li+    0.000000    0.500000    0.228338    2.000000 Uiso  0.3650
 Li1_B1_n116 Li+    0.500000    0.000000    0.230338    2.000000 Uiso  1.0000
 Li2_B1_n116 Li+    0.000000    0.500000    0.230338    2.000000 Uiso  0.3650
 Li1_B1_n117 Li+    0.500000    0.000000    0.232338    2.000000 Uiso  1.0000
 Li2_B1_n117 Li+    0.000000    0.500000    0.232338    2.000000 Uiso  0.3650
 Li1_B1_n118 Li+    0.500000    0.000000    0.234338    2.000000 Uiso  1.0000
 Li2_B1_n118 Li+    0.000000    0.500000    0.234338    2.000000 Uiso  0.3650
 Li1_B1_n119 Li+    0.500000    0.000000    0.236338    2.000000 Uiso  1.0000
 Li2_B1_n119 Li+    0.000000    0.500000    0.236338    2.000000 Uiso  0.3650
 Li1_B1_n120 Li+    0.500000    0.000000    0.238338    2.000000 Uiso  1.0000
 Li2_B1_n120 Li+    0.000000    0.500000    0.238338    2.000000 Uiso  0.3650
 Li1_B1_n121 Li+    0.500000    0.000000    0.240338    2.000000 Uiso  1.0000
 Li2_B1_n121 Li+    0.000000    0.500000    0.240338    2.000000 Uiso  0.3650
 Li1_B1_n122 Li+    0.500000    0.000000    0.242338    2.000000 Uiso  1.0000
 Li2_B1_n122 Li+    0.000000    0.500000    0.242338    2.000000 Uiso  0.3650
 Li1_B1_n123 Li+    0.500000    0.000000    0.244338    2.000000 Uiso  1.0000
 Li2_B1_n123 Li+    0.000000    0.500000    0.244338    2.000000 Uiso  0.3650
 Li1_B1_n124 Li+    0.500000    0.000000    0.246338    2.000000 Uiso  1.0000
 Li2_B1_n124 Li+    0.000000    0.500000    0.246338    2.000000 Uiso  0.3650
 Li1_B1_n125 Li+    0.500000    0.000000    0.248338    2.000000 Uiso  1.0000
 Li2_B1_n125 Li+    0.000000    0.500000    0.248338    2.000000 Uiso  0.3650
 Li1_B1_n126 Li+    0.500000    0.000000    0.250338    2.000000 Uiso  1.0000
 Li2_B1_n126 Li+    0.000000    0.500000    0.250338    2.000000 Uiso  0.3650
 Li1_B1_n127 Li+    0.500000    0.000000    0.252338    2.000000 Uiso  1.0000
 Li2_B1_n127 Li+    0.000000    0.500000    0.252338    2.000000 Uiso  0.3650
 Li1_B1_n128 Li+    0.500000    0.000000    0.254338    2.000000 Uiso  1.0000
 Li2_B1_n128 Li+    0.000000    0.500000    0.254338    2.000000 Uiso  0.3650
 Li1_B1_n129 Li+    0.500000    0.000000    0.256338    2.000000 Uiso  1.0000
 Li2_B1_n129 Li+    0.000000    0.500000    0.256338    2.000000 Uiso  0.3650
 Li1_B1_n130 Li+    0.500000    0.000000    0.258338    2.000000 Uiso  1.0000
 Li2_B1_n130 Li+    0.000000    0.500000    0.258338    2.000000 Uiso  0.3650
 Li1_B1_n131 Li+    0.500000    0.000000    0.260338    2.000000 Uiso  1.0000
 Li2_B1_n131 Li+    0.000000    0.500000    0.260338    2.000000 Uiso  0.3650
 Li1_B1_n132 Li+    0.500000    0.000000    0.262338    2.000000 Uiso  1.0000
 Li2_B1_n132 Li+    0.000000    0.500000    0.262338    2.000000 Uiso  0.3650
 Li1_B1_n133 Li+    0.500000    0.000000    0.264338    2.000000 Uiso  1.0000
 Li2_B1_n133 Li+    0.000000    0.500000    0.264338    2.000000 Uiso  0.3650
 Li1_B1_n134 Li+    0.500000    0.000000    0.266338    2.000000 Uiso  1.0000
 Li2_B1_n134 Li+    0.000000    0.500000    0.266338    2.000000 Uiso  0.3650
 Li1_B1_n135 Li+    0.500000    0.000000    0.268338    2.000000 Uiso  1.0000
 Li2_B1_n135 Li+    0.000000    0.500000    0.268338    2.000000 Uiso  0.3650
 Li1_B1_n136 Li+    0.500000    0.000000    0.270338    2.000000 Uiso  1.0000
 Li2_B1_n136 Li+    0.000000    0.500000    0.270338    2.000000 Uiso  0.3650
 Li1_B1_n137 Li+    0.500000    0.000000    0.272338    2.000000 Uiso  1.0000
 Li2_B1_n137 Li+    0.000000    0.500000    0.272338    2.000000 Uiso  0.3650
 Li1_B1_n138 Li+    0.500000    0.000000    0.274338    2.000000 Uiso  1.0000
 Li2_B1_n138 Li+    0.000000    0.500000    0.274338    2.000000 Uiso  0.3650
 Li1_B1_n139 Li+    0.500000    0.000000    0.276338    2.000000 Uiso  1.0000
 Li2_B1_n139 Li+    0.000000    0.500000    0.276338    2.000000 Uiso  0.3650
 Li1_B1_n140 Li+    0.500000    0.000000    0.278338    2.000000 Uiso  1.0000
 Li2_B1_n140 Li+    0.000000    0.500000    0.278338    2.000000 Uiso  0.3650
 Li1_B1_n141 Li+    0.500000    0.000000    0.280338    2.000000 Uiso  1.0000
 Li2_B1_n141 Li+    0.000000    0.500000    0.280338    2.000000 Uiso  0.3650
 Li1_B1_n142 Li+    0.500000    0.000000    0.282338    2.000000 Uiso  1.0000
 Li2_B1_n142 Li+    0.000000    0.500000    0.282338    2.000000 Uiso  0.3650
 Li1_B1_n143 Li+    0.500000    0.000000    0.284338    2.000000 Uiso  1.0000
 Li2_B1_n143 Li+    0.000000    0.500000    0.284338    2.000000 Uiso  0.3650
 Li1_B1_n144 Li+    0.500000    0.000000    0.286338    2.000000 Uiso  1.0000
 Li2_B1_n144 Li+    0.000000    0.500000    0.286338    2.000000 Uiso  0.3650
 Li1_B1_n145 Li+    0.500000    0.000000    0.288338    2.000000 Uiso  1.0000
 Li2_B1_n145 Li+    0.000000    0.500000    0.288338    2.000000 Uiso  0.3650
 Li1_B1_n146 Li+    0.500000    0.000000    0.290338    2.000000 Uiso  1.0000
 Li2_B1_n146 Li+    0.000000    0.500000    0.290338    2.000000 Uiso  0.3650
 Li1_B1_n147 Li+    0.500000    0.000000    0.292338    2.000000 Uiso  1.0000
 Li2_B1_n147 Li+    0.000000    0.500000    0.292338    2.000000 Uiso  0.3650
 Li1_B1_n148 Li+    0.500000    0.000000    0.294338    2.000000 Uiso  1.0000
 Li2_B1_n148 Li+    0.000000    0.500000    0.294338    2.000000 Uiso  0.3650
 Li1_B1_n149 Li+    0.500000    0.000000    0.296338    2.000000 Uiso  1.0000
 Li2_B1_n149 Li+    0.000000    0.500000    0.296338    2.000000 Uiso  0.3650
 Li1_B1_n150 Li+    0.500000    0.000000    0.298338    2.000000 Uiso  1.0000
 Li2_B1_n150 Li+    0.000000    0.500000    0.298338    2.000000 Uiso  0.3650
 Li1_B1_n151 Li+    0.500000    0.000000    0.300338    2.000000 Uiso  1.0000
 Li2_B1_n151 Li+    0.000000    0.500000    0.300338    2.000000 Uiso  0.3650
 Li1_B1_n152 Li+    0.500000    0.000000    0.302338    2.000000 Uiso  1.0000
 Li2_B1_n152 Li+    0.000000    0.500000    0.302338    2.000000 Uiso  0.3650
 Li1_B1_n153 Li+    0.500000    0.000000    0.304338    2.000000 Uiso  1.0000
 Li2_B1_n153 Li+    0.000000    0.500000    0.304338    2.000000 Uiso  0.3650
 Li1_B1_n154 Li+    0.500000    0.000000    0.306338    2.000000 Uiso  1.0000
 Li2_B1_n154 Li+    0.000000    0.500000    0.306338    2.000000 Uiso  0.3650
 Li1_B1_n155 Li+    0.500000    0.000000    0.308338    2.000000 Uiso  1.0000
 Li2_B1_n155 Li+    0.000000    0.500000    0.308338    2.000000 Uiso  0.3650
 Li1_B1_n156 Li+    0.500000    0.000000    0.310338    2.000000 Uiso  1.0000
 Li2_B1_n156 Li+    0.000000    0.500000    0.310338    2.000000 Uiso  0.3650
 Li1_B1_n157 Li+    0.500000    0.000000    0.312338    2.000000 Uiso  1.0000
 Li2_B1_n157 Li+    0.000000    0.500000    0.312338    2.000000 Uiso  0.3650
 Li1_B1_n158 Li+    0.500000    0.000000    0.314338    2.000000 Uiso  1.0000
 Li2_B1_n158 Li+    0.000000    0.500000    0.314338    2.000000 Uiso  0.3650
 Li1_B1_n159 Li+    0.500000    0.000000    0.316338    2.000000 Uiso  1.0000
 Li2_B1_n159 Li+    0.000000    0.500000    0.316338    2.000000 Uiso  0.3650
 Li1_B1_n160 Li+    0.500000    0.000000    0.318338    2.000000 Uiso  1.0000
 Li2_B1_n160 Li+    0.000000    0.500000    0.318338    2.000000 Uiso  0.3650
 Li1_B1_n161 Li+    0.500000    0.000000    0.320338    2.000000 Uiso  1.0000
 Li2_B1_n161 Li+    0.000000    0.500000    0.320338    2.000000 Uiso  0.3650
 Li1_B1_n162 Li+    0.500000    0.000000    0.322338    2.000000 Uiso  1.0000
 Li2_B1_n162 Li+    0.000000    0.500000    0.322338    2.000000 Uiso  0.3650
 Li1_B1_n163 Li+    0.500000    0.000000    0.324338    2.000000 Uiso  1.0000
 Li2_B1_n163 Li+    0.000000    0.500000    0.324338    2.000000 Uiso  0.3650
 Li1_B1_n164 Li+    0.500000    0.000000    0.326338    2.000000 Uiso  1.0000
 Li2_B1_n164 Li+    0.000000    0.500000    0.326338    2.000000 Uiso  0.3650
 Li1_B1_n165 Li+    0.500000    0.000000    0.328338    2.000000 Uiso  1.0000
 Li2_B1_n165 Li+    0.000000    0.500000    0.328338    2.000000 Uiso  0.3650
 Li1_B1_n166 Li+    0.500000    0.000000    0.330338    2.000000 Uiso  1.0000
 Li2_B1_n166 Li+    0.000000    0.500000    0.330338    2.000000 Uiso  0.3650
 Li1_B1_n167 Li+    0.500000    0.000000    0.332338    2.000000 Uiso  1.0000
 Li2_B1_n167 Li+    0.000000    0.500000    0.332338    2.000000 Uiso  0.3650
 Li1_B1_n168 Li+    0.500000    0.000000    0.334338    2.000000 Uiso  1.0000
 Li2_B1_n168 Li+    0.000000    0.500000    0.334338    2.000000 Uiso  0.3650
 Li1_B1_n169 Li+    0.500000    0.000000    0.336338    2.000000 Uiso  1.0000
 Li2_B1_n169 Li+    0.000000    0.500000    0.336338    2.000000 Uiso  0.3650
 Li1_B1_n170 Li+    0.500000    0.000000    0.338338    2.000000 Uiso  1.0000
 Li2_B1_n170 Li+    0.000000    0.500000    0.338338    2.000000 Uiso  0.3650
 Li1_B1_n171 Li+    0.500000    0.000000    0.340338    2.000000 Uiso  1.0000
 Li2_B1_n171 Li+    0.000000    0.500000    0.340338    2.000000 Uiso  0.3650
 Li1_B1_n172 Li+    0.500000    0.000000    0.342338    2.000000 Uiso  1.0000
 Li2_B1_n172 Li+    0.000000    0.500000    0.342338    2.000000 Uiso  0.3650
 Li1_B1_n173 Li+    0.500000    0.000000    0.344338    2.000000 Uiso  1.0000
 Li2_B1_n173 Li+    0.000000    0.500000    0.344338    2.000000 Uiso  0.3650
 Li1_B1_n174 Li+    0.500000    0.000000    0.346338    2.000000 Uiso  1.0000
 Li2_B1_n174 Li+    0.000000    0.500000    0.346338    2.000000 Uiso  0.3650
 Li1_B1_n175 Li+    0.500000    0.000000    0.348338    2.000000 Uiso  1.0000
 Li2_B1_n175 Li+    0.000000    0.500000    0.348338    2.000000 Uiso  0.3650
 Li1_B1_n176 Li+    0.500000    0.000000    0.350338    2.000000 Uiso  1.0000
 Li2_B1_n176 Li+    0.000000    0.500000    0.350338    2.000000 Uiso  0.3650
 Li1_B1_n177 Li+    0.500000    0.000000    0.352338    2.000000 Uiso  1.0000
 Li2_B1_n177 Li+    0.000000    0.500000    0.352338    2.000000 Uiso  0.3650
 Li1_B1_n178 Li+    0.500000    0.000000    0.354338    2.000000 Uiso  1.0000
 Li2_B1_n178 Li+    0.000000    0.500000    0.354338    2.000000 Uiso  0.3650
 Li1_B1_n179 Li+    0.500000    0.000000    0.356338    2.000000 Uiso  1.0000
 Li2_B1_n179 Li+    0.000000    0.500000    0.356338    2.000000 Uiso  0.3650
 Li1_B1_n180 Li+    0.500000    0.000000    0.358338    2.000000 Uiso  1.0000
 Li2_B1_n180 Li+    0.000000    0.500000    0.358338    2.000000 Uiso  0.3650
 Li1_B1_n181 Li+    0.500000    0.000000    0.360338    2.000000 Uiso  1.0000
 Li2_B1_n181 Li+    0.000000    0.500000    0.360338    2.000000 Uiso  0.3650
 Li1_B1_n182 Li+    0.500000    0.000000    0.362338    2.000000 Uiso  1.0000
 Li2_B1_n182 Li+    0.000000    0.500000    0.362338    2.000000 Uiso  0.3650
 Li1_B1_n183 Li+    0.500000    0.000000    0.364338    2.000000 Uiso  1.0000
 Li2_B1_n183 Li+    0.000000    0.500000    0.364338    2.000000 Uiso  0.3650
 Li1_B1_n184 Li+    0.500000    0.000000    0.366338    2.000000 Uiso  1.0000
 Li2_B1_n184 Li+    0.000000    0.500000    0.366338    2.000000 Uiso  0.3650
 Li1_B1_n185 Li+    0.500000    0.000000    0.368338    2.000000 Uiso  1.0000
 Li2_B1_n185 Li+    0.000000    0.500000    0.368338    2.000000 Uiso  0.3650
 Li1_B1_n186 Li+    0.500000    0.000000    0.370338    2.000000 Uiso  1.0000
 Li2_B1_n186 Li+    0.000000    0.500000    0.370338    2.000000 Uiso  0.3650
 Li1_B1_n187 Li+    0.500000    0.000000    0.372338    2.000000 Uiso  1.0000
 Li2_B1_n187 Li+    0.000000    0.500000    0.372338    2.000000 Uiso  0.3650
 Li1_B1_n188 Li+    0.500000    0.000000    0.374338    2.000000 Uiso  1.0000
 Li2_B1_n188 Li+    0.000000    0.500000    0.374338    2.000000 Uiso  0.3650
 Li1_B1_n189 Li+    0.500000    0.000000    0.376338    2.000000 Uiso  1.0000
 Li2_B1_n189 Li+    0.000000    0.500000    0.376338    2.000000 Uiso  0.3650
 Li1_B1_n190 Li+    0.500000    0.000000    0.378338    2.000000 Uiso  1.0000
 Li2_B1_n190 Li+    0.000000    0.500000    0.378338    2.000000 Uiso  0.3650
 Li1_B1_n191 Li+    0.500000    0.000000    0.380338    2.000000 Uiso  1.0000
 Li2_B1_n191 Li+    0.000000    0.500000    0.380338    2.000000 Uiso  0.3650
 Li1_B1_n192 Li+    0.500000    0.000000    0.382338    2.000000 Uiso  1.0000
 Li2_B1_n192 Li+    0.000000    0.500000    0.382338    2.000000 Uiso  0.3650
 Li1_B1_n193 Li+    0.500000    0.000000    0.384338    2.000000 Uiso  1.0000
 Li2_B1_n193 Li+    0.000000    0.500000    0.384338    2.000000 Uiso  0.3650
 Li1_B1_n194 Li+    0.500000    0.000000    0.386338    2.000000 Uiso  1.0000
 Li2_B1_n194 Li+    0.000000    0.500000    0.386338    2.000000 Uiso  0.3650
 Li1_B1_n195 Li+    0.500000    0.000000    0.388338    2.000000 Uiso  1.0000
 Li2_B1_n195 Li+    0.000000    0.500000    0.388338    2.000000 Uiso  0.3650
 Li1_B1_n196 Li+    0.500000    0.000000    0.390338    2.000000 Uiso  1.0000
 Li2_B1_n196 Li+    0.000000    0.500000    0.390338    2.000000 Uiso  0.3650
 Li1_B1_n197 Li+    0.500000    0.000000    0.392338    2.000000 Uiso  1.0000
 Li2_B1_n197 Li+    0.000000    0.500000    0.392338    2.000000 Uiso  0.3650
 Li1_B1_n198 Li+    0.500000    0.000000    0.394338    2.000000 Uiso  1.0000
 Li2_B1_n198 Li+    0.000000    0.500000    0.394338    2.000000 Uiso  0.3650
 Li1_B1_n199 Li+    0.500000    0.000000    0.396338    2.000000 Uiso  1.0000
 Li2_B1_n199 Li+    0.000000    0.500000    0.396338    2.000000 Uiso  0.3650
 Li1_B1_n200 Li+    0.500000    0.000000    0.398338    2.000000 Uiso  1.0000
 Li2_B1_n200 Li+    0.000000    0.500000    0.398338    2.000000 Uiso  0.3650
 Li1_B1_n201 Li+    0.500000    0.000000    0.400338    2.000000 Uiso  1.0000
 Li2_B1_n201 Li+    0.000000    0.500000    0.400338    2.000000 Uiso  0.3650
 Li1_B1_n202 Li+    0.500000    0.000000    0.402338    2.000000 Uiso  1.0000
 Li2_B1_n202 Li+    0.000000    0.500000    0.402338    2.000000 Uiso  0.3650
 Li1_B1_n203 Li+    0.500000    0.000000    0.404338    2.000000 Uiso  1.0000
 Li2_B1_n203 Li+    0.000000    0.500000    0.404338    2.000000 Uiso  0.3650
 Li1_B1_n204 Li+    0.500000    0.000000    0.406338    2.000000 Uiso  1.0000
 Li2_B1_n204 Li+    0.000000    0.500000    0.406338    2.000000 Uiso  0.3650
 Li1_B1_n205 Li+    0.500000    0.000000    0.408338    2.000000 Uiso  1.0000
 Li2_B1_n205 Li+    0.000000    0.500000    0.408338    2.000000 Uiso  0.3650
 Li1_B1_n206 Li+    0.500000    0.000000    0.410338    2.000000 Uiso  1.0000
 Li2_B1_n206 Li+    0.000000    0.500000    0.410338    2.000000 Uiso  0.3650
 Li1_B1_n207 Li+    0.500000    0.000000    0.412338    2.000000 Uiso  1.0000
 Li2_B1_n207 Li+    0.000000    0.500000    0.412338    2.000000 Uiso  0.3650
 Li1_B1_n208 Li+    0.500000    0.000000    0.414338    2.000000 Uiso  1.0000
 Li2_B1_n208 Li+    0.000000    0.500000    0.414338    2.000000 Uiso  0.3650
 Li1_B1_n209 Li+    0.500000    0.000000    0.416338    2.000000 Uiso  1.0000
 Li2_B1_n209 Li+    0.000000    0.500000    0.416338    2.000000 Uiso  0.3650
 Li1_B1_n210 Li+    0.500000    0.000000    0.418338    2.000000 Uiso  1.0000
 Li2_B1_n210 Li+    0.000000    0.500000    0.418338    2.000000 Uiso  0.3650
 Li1_B1_n211 Li+    0.500000    0.000000    0.420338    2.000000 Uiso  1.0000
 Li2_B1_n211 Li+    0.000000    0.500000    0.420338    2.000000 Uiso  0.3650
 Li1_B1_n212 Li+    0.500000    0.000000    0.422338    2.000000 Uiso  1.0000
 Li2_B1_n212 Li+    0.000000    0.500000    0.422338    2.000000 Uiso  0.3650
 Li1_B1_n213 Li+    0.500000    0.000000    0.424338    2.000000 Uiso  1.0000
 Li2_B1_n213 Li+    0.000000    0.500000    0.424338    2.000000 Uiso  0.3650
 Li1_B1_n214 Li+    0.500000    0.000000    0.426338    2.000000 Uiso  1.0000
 Li2_B1_n214 Li+    0.000000    0.500000    0.426338    2.000000 Uiso  0.3650
 Li1_B1_n215 Li+    0.500000    0.000000    0.428338    2.000000 Uiso  1.0000
 Li2_B1_n215 Li+    0.000000    0.500000    0.428338    2.000000 Uiso  0.3650
 Li1_B1_n216 Li+    0.500000    0.000000    0.430338    2.000000 Uiso  1.0000
 Li2_B1_n216 Li+    0.000000    0.500000    0.430338    2.000000 Uiso  0.3650
 Li1_B1_n217 Li+    0.500000    0.000000    0.432338    2.000000 Uiso  1.0000
 Li2_B1_n217 Li+    0.000000    0.500000    0.432338    2.000000 Uiso  0.3650
 Li1_B1_n218 Li+    0.500000    0.000000    0.434338    2.000000 Uiso  1.0000
 Li2_B1_n218 Li+    0.000000    0.500000    0.434338    2.000000 Uiso  0.3650
 Li1_B1_n219 Li+    0.500000    0.000000    0.436338    2.000000 Uiso  1.0000
 Li2_B1_n219 Li+    0.000000    0.500000    0.436338    2.000000 Uiso  0.3650
 Li1_B1_n220 Li+    0.500000    0.000000    0.438338    2.000000 Uiso  1.0000
 Li2_B1_n220 Li+    0.000000    0.500000    0.438338    2.000000 Uiso  0.3650
 Li1_B1_n221 Li+    0.500000    0.000000    0.440338    2.000000 Uiso  1.0000
 Li2_B1_n221 Li+    0.000000    0.500000    0.440338    2.000000 Uiso  0.3650
 Li1_B1_n222 Li+    0.500000    0.000000    0.442338    2.000000 Uiso  1.0000
 Li2_B1_n222 Li+    0.000000    0.500000    0.442338    2.000000 Uiso  0.3650
 Li1_B1_n223 Li+    0.500000    0.000000    0.444338    2.000000 Uiso  1.0000
 Li2_B1_n223 Li+    0.000000    0.500000    0.444338    2.000000 Uiso  0.3650
 Li1_B1_n224 Li+    0.500000    0.000000    0.446338    2.000000 Uiso  1.0000
 Li2_B1_n224 Li+    0.000000    0.500000    0.446338    2.000000 Uiso  0.3650
 Li1_B1_n225 Li+    0.500000    0.000000    0.448338    2.000000 Uiso  1.0000
 Li2_B1_n225 Li+    0.000000    0.500000    0.448338    2.000000 Uiso  0.3650
 Li1_B1_n226 Li+    0.500000    0.000000    0.450338    2.000000 Uiso  1.0000
 Li2_B1_n226 Li+    0.000000    0.500000    0.450338    2.000000 Uiso  0.3650
 Li1_B1_n227 Li+    0.500000    0.000000    0.452338    2.000000 Uiso  1.0000
 Li2_B1_n227 Li+    0.000000    0.500000    0.452338    2.000000 Uiso  0.3650
 Li1_B1_n228 Li+    0.500000    0.000000    0.454338    2.000000 Uiso  1.0000
 Li2_B1_n228 Li+    0.000000    0.500000    0.454338    2.000000 Uiso  0.3650
 Li1_B1_n229 Li+    0.500000    0.000000    0.456338    2.000000 Uiso  1.0000
 Li2_B1_n229 Li+    0.000000    0.500000    0.456338    2.000000 Uiso  0.3650
 Li1_B1_n230 Li+    0.500000    0.000000    0.458338    2.000000 Uiso  1.0000
 Li2_B1_n230 Li+    0.000000    0.500000    0.458338    2.000000 Uiso  0.3650
 Li1_B1_n231 Li+    0.500000    0.000000    0.460338    2.000000 Uiso  1.0000
 Li2_B1_n231 Li+    0.000000    0.500000    0.460338    2.000000 Uiso  0.3650
 Li1_B1_n232 Li+    0.500000    0.000000    0.462338    2.000000 Uiso  1.0000
 Li2_B1_n232 Li+    0.000000    0.500000    0.462338    2.000000 Uiso  0.3650
 Li1_B1_n233 Li+    0.500000    0.000000    0.464338    2.000000 Uiso  1.0000
 Li2_B1_n233 Li+    0.000000    0.500000    0.464338    2.000000 Uiso  0.3650
 Li1_B1_n234 Li+    0.500000    0.000000    0.466338    2.000000 Uiso  1.0000
 Li2_B1_n234 Li+    0.000000    0.500000    0.466338    2.000000 Uiso  0.3650
 Li1_B1_n235 Li+    0.500000    0.000000    0.468338    2.000000 Uiso  1.0000
 Li2_B1_n235 Li+    0.000000    0.500000    0.468338    2.000000 Uiso  0.3650
 Li1_B1_n236 Li+    0.500000    0.000000    0.470338    2.000000 Uiso  1.0000
 Li2_B1_n236 Li+    0.000000    0.500000    0.470338    2.000000 Uiso  0.3650
 Li1_B1_n237 Li+    0.500000    0.000000    0.472338    2.000000 Uiso  1.0000
 Li2_B1_n237 Li+    0.000000    0.500000    0.472338    2.000000 Uiso  0.3650
 Li1_B1_n238 Li+    0.500000    0.000000    0.474338    2.000000 Uiso  1.0000
 Li2_B1_n238 Li+    0.000000    0.500000    0.474338    2.000000 Uiso  0.3650
 Li1_B1_n239 Li+    0.500000    0.000000    0.476338    2.000000 Uiso  1.0000
 Li2_B1_n239 Li+    0.000000    0.500000    0.476338    2.000000 Uiso  0.3650
 Li1_B1_n240 Li+    0.500000    0.000000    0.478338    2.000000 Uiso  1.0000
 Li2_B1_n240 Li+    0.000000    0.500000    0.478338    2.000000 Uiso  0.3650
 Li1_B1_n241 Li+    0.500000    0.000000    0.480338    2.000000 Uiso  1.0000
 Li2_B1_n241 Li+    0.000000    0.500000    0.480338    2.000000 Uiso  0.3650
 Li1_B1_n242 Li+    0.500000    0.000000    0.482338    2.000000 Uiso  1.0000
 Li2_B1_n242 Li+    0.000000    0.500000    0.482338    2.000000 Uiso  0.3650
 Li1_B1_n243 Li+    0.500000    0.000000    0.484338    2.000000 Uiso  1.0000
 Li2_B1_n243 Li+    0.000000    0.500000    0.484338    2.000000 Uiso  0.3650
 Li1_B1_n244 Li+    0.500000    0.000000    0.486338    2.000000 Uiso  1.0000
 Li2_B1_n244 Li+    0.000000    0.500000    0.486338    2.000000 Uiso  0.3650
 Li1_B1_n245 Li+    0.500000    0.000000    0.488338    2.000000 Uiso  1.0000
 Li2_B1_n245 Li+    0.000000    0.500000    0.488338    2.000000 Uiso  0.3650
 Li1_B1_n246 Li+    0.500000    0.000000    0.490338    2.000000 Uiso  1.0000
 Li2_B1_n246 Li+    0.000000    0.500000    0.490338    2.000000 Uiso  0.3650
 Li1_B1_n247 Li+    0.500000    0.000000    0.492338    2.000000 Uiso  1.0000
 Li2_B1_n247 Li+    0.000000    0.500000    0.492338    2.000000 Uiso  0.3650
 Li1_B1_n248 Li+    0.500000    0.000000    0.494338    2.000000 Uiso  1.0000
 Li2_B1_n248 Li+    0.000000    0.500000    0.494338    2.000000 Uiso  0.3650
 Li1_B1_n249 Li+    0.500000    0.000000    0.496338    2.000000 Uiso  1.0000
 Li2_B1_n249 Li+    0.000000    0.500000    0.496338    2.000000 Uiso  0.3650
 Li1_B1_n250 Li+    0.500000    0.000000    0.498338    2.000000 Uiso  1.0000
 Li2_B1_n250 Li+    0.000000    0.500000    0.498338    2.000000 Uiso  0.3650
 Li1_B1_n251 Li+    0.500000    0.000000    0.500338    2.000000 Uiso  1.0000
 Li2_B1_n251 Li+    0.000000    0.500000    0.500338    2.000000 Uiso  0.3650
 Li1_B1_n252 Li+    0.500000    0.000000    0.502338    2.000000 Uiso  1.0000
 Li2_B1_n252 Li+    0.000000    0.500000    0.502338    2.000000 Uiso  0.3650
 Li1_B1_n253 Li+    0.500000    0.000000    0.504338    2.000000 Uiso  1.0000
 Li2_B1_n253 Li+    0.000000    0.500000    0.504338    2.000000 Uiso  0.3650
 Li1_B1_n254 Li+    0.500000    0.000000    0.506338    2.000000 Uiso  1.0000
 Li2_B1_n254 Li+    0.000000    0.500000    0.506338    2.000000 Uiso  0.3650
 Li1_B1_n255 Li+    0.500000    0.000000    0.508338    2.000000 Uiso  1.0000
 Li2_B1_n255 Li+    0.000000    0.500000    0.508338    2.000000 Uiso  0.3650
 Li1_B1_n256 Li+    0.500000    0.000000    0.510338    2.000000 Uiso  1.0000
 Li2_B1_n256 Li+    0.000000    0.500000    0.510338    2.000000 Uiso  0.3650
 Li1_B1_n257 Li+    0.500000    0.000000    0.512338    2.000000 Uiso  1.0000
 Li2_B1_n257 Li+    0.000000    0.500000    0.512338    2.000000 Uiso  0.3650
 Li1_B1_n258 Li+    0.500000    0.000000    0.514338    2.000000 Uiso  1.0000
 Li2_B1_n258 Li+    0.000000    0.500000    0.514338    2.000000 Uiso  0.3650
 Li1_B1_n259 Li+    0.500000    0.000000    0.516338    2.000000 Uiso  1.0000
 Li2_B1_n259 Li+    0.000000    0.500000    0.516338    2.000000 Uiso  0.3650
 Li1_B1_n260 Li+    0.500000    0.000000    0.518338    2.000000 Uiso  1.0000
 Li2_B1_n260 Li+    0.000000    0.500000    0.518338    2.000000 Uiso  0.3650
 Li1_B1_n261 Li+    0.500000    0.000000    0.520338    2.000000 Uiso  1.0000
 Li2_B1_n261 Li+    0.000000    0.500000    0.520338    2.000000 Uiso  0.3650
 Li1_B1_n262 Li+    0.500000    0.000000    0.522338    2.000000 Uiso  1.0000
 Li2_B1_n262 Li+    0.000000    0.500000    0.522338    2.000000 Uiso  0.3650
 Li1_B1_n263 Li+    0.500000    0.000000    0.524338    2.000000 Uiso  1.0000
 Li2_B1_n263 Li+    0.000000    0.500000    0.524338    2.000000 Uiso  0.3650
 Li1_B1_n264 Li+    0.500000    0.000000    0.526338    2.000000 Uiso  1.0000
 Li2_B1_n264 Li+    0.000000    0.500000    0.526338    2.000000 Uiso  0.3650
 Li1_B1_n265 Li+    0.500000    0.000000    0.528338    2.000000 Uiso  1.0000
 Li2_B1_n265 Li+    0.000000    0.500000    0.528338    2.000000 Uiso  0.3650
 Li1_B1_n266 Li+    0.500000    0.000000    0.530338    2.000000 Uiso  1.0000
 Li2_B1_n266 Li+    0.000000    0.500000    0.530338    2.000000 Uiso  0.3650
 Li1_B1_n267 Li+    0.500000    0.000000    0.532338    2.000000 Uiso  1.0000
 Li2_B1_n267 Li+    0.000000    0.500000    0.532338    2.000000 Uiso  0.3650
 Li1_B1_n268 Li+    0.500000    0.000000    0.534338    2.000000 Uiso  1.0000
 Li2_B1_n268 Li+    0.000000    0.500000    0.534338    2.000000 Uiso  0.3650
 Li1_B1_n269 Li+    0.500000    0.000000    0.536338    2.000000 Uiso  1.0000
 Li2_B1_n269 Li+    0.000000    0.500000    0.536338    2.000000 Uiso  0.3650
 Li1_B1_n270 Li+    0.500000    0.000000    0.538338    2.000000 Uiso  1.0000
 Li2_B1_n270 Li+    0.000000    0.500000    0.538338    2.000000 Uiso  0.3650
 Li1_B1_n271 Li+    0.500000    0.000000    0.540338    2.000000 Uiso  1.0000
 Li2_B1_n271 Li+    0.000000    0.500000    0.540338    2.000000 Uiso  0.3650
 Li1_B1_n272 Li+    0.500000    0.000000    0.542338    2.000000 Uiso  1.0000
 Li2_B1_n272 Li+    0.000000    0.500000    0.542338    2.000000 Uiso  0.3650
 Li1_B1_n273 Li+    0.500000    0.000000    0.544338    2.000000 Uiso  1.0000
 Li2_B1_n273 Li+    0.000000    0.500000    0.544338    2.000000 Uiso  0.3650
 Li1_B1_n274 Li+    0.500000    0.000000    0.546338    2.000000 Uiso  1.0000
 Li2_B1_n274 Li+    0.000000    0.500000    0.546338    2.000000 Uiso  0.3650
 Li1_B1_n275 Li+    0.500000    0.000000    0.548338    2.000000 Uiso  1.0000
 Li2_B1_n275 Li+    0.000000    0.500000    0.548338    2.000000 Uiso  0.3650
 Li1_B1_n276 Li+    0.500000    0.000000    0.550338    2.000000 Uiso  1.0000
 Li2_B1_n276 Li+    0.000000    0.500000    0.550338    2.000000 Uiso  0.3650
 Li1_B1_n277 Li+    0.500000    0.000000    0.552338    2.000000 Uiso  1.0000
 Li2_B1_n277 Li+    0.000000    0.500000    0.552338    2.000000 Uiso  0.3650
 Li1_B1_n278 Li+    0.500000    0.000000    0.554338    2.000000 Uiso  1.0000
 Li2_B1_n278 Li+    0.000000    0.500000    0.554338    2.000000 Uiso  0.3650
 Li1_B1_n279 Li+    0.500000    0.000000    0.556338    2.000000 Uiso  1.0000
 Li2_B1_n279 Li+    0.000000    0.500000    0.556338    2.000000 Uiso  0.3650
 Li1_B1_n280 Li+    0.500000    0.000000    0.558338    2.000000 Uiso  1.0000
 Li2_B1_n280 Li+    0.000000    0.500000    0.558338    2.000000 Uiso  0.3650
 Li1_B1_n281 Li+    0.500000    0.000000    0.560338    2.000000 Uiso  1.0000
 Li2_B1_n281 Li+    0.000000    0.500000    0.560338    2.000000 Uiso  0.3650
 Li1_B1_n282 Li+    0.500000    0.000000    0.562338    2.000000 Uiso  1.0000
 Li2_B1_n282 Li+    0.000000    0.500000    0.562338    2.000000 Uiso  0.3650
 Li1_B1_n283 Li+    0.500000    0.000000    0.564338    2.000000 Uiso  1.0000
 Li2_B1_n283 Li+    0.000000    0.500000    0.564338    2.000000 Uiso  0.3650
 Li1_B1_n284 Li+    0.500000    0.000000    0.566338    2.000000 Uiso  1.0000
 Li2_B1_n284 Li+    0.000000    0.500000    0.566338    2.000000 Uiso  0.3650
 Li1_B1_n285 Li+    0.500000    0.000000    0.568338    2.000000 Uiso  1.0000
 Li2_B1_n285 Li+    0.000000    0.500000    0.568338    2.000000 Uiso  0.3650
 Li1_B1_n286 Li+    0.500000    0.000000    0.570338    2.000000 Uiso  1.0000
 Li2_B1_n286 Li+    0.000000    0.500000    0.570338    2.000000 Uiso  0.3650
 Li1_B1_n287 Li+    0.500000    0.000000    0.572338    2.000000 Uiso  1.0000
 Li2_B1_n287 Li+    0.000000    0.500000    0.572338    2.000000 Uiso  0.3650
 Li1_B1_n288 Li+    0.500000    0.000000    0.574338    2.000000 Uiso  1.0000
 Li2_B1_n288 Li+    0.000000    0.500000    0.574338    2.000000 Uiso  0.3650
 Li1_B1_n289 Li+    0.500000    0.000000    0.576338    2.000000 Uiso  1.0000
 Li2_B1_n289 Li+    0.000000    0.500000    0.576338    2.000000 Uiso  0.3650
 Li1_B1_n290 Li+    0.500000    0.000000    0.578338    2.000000 Uiso  1.0000
 Li2_B1_n290 Li+    0.000000    0.500000    0.578338    2.000000 Uiso  0.3650
 Li1_B1_n291 Li+    0.500000    0.000000    0.580338    2.000000 Uiso  1.0000
 Li2_B1_n291 Li+    0.000000    0.500000    0.580338    2.000000 Uiso  0.3650
 Li1_B1_n292 Li+    0.500000    0.000000    0.582338    2.000000 Uiso  1.0000
 Li2_B1_n292 Li+    0.000000    0.500000    0.582338    2.000000 Uiso  0.3650
 Li1_B1_n293 Li+    0.500000    0.000000    0.584338    2.000000 Uiso  1.0000
 Li2_B1_n293 Li+    0.000000    0.500000    0.584338    2.000000 Uiso  0.3650
 Li1_B1_n294 Li+    0.500000    0.000000    0.586338    2.000000 Uiso  1.0000
 Li2_B1_n294 Li+    0.000000    0.500000    0.586338    2.000000 Uiso  0.3650
 Li1_B1_n295 Li+    0.500000    0.000000    0.588338    2.000000 Uiso  1.0000
 Li2_B1_n295 Li+    0.000000    0.500000    0.588338    2.000000 Uiso  0.3650
 Li1_B1_n296 Li+    0.500000    0.000000    0.590338    2.000000 Uiso  1.0000
 Li2_B1_n296 Li+    0.000000    0.500000    0.590338    2.000000 Uiso  0.3650
 Li1_B1_n297 Li+    0.500000    0.000000    0.592338    2.000000 Uiso  1.0000
 Li2_B1_n297 Li+    0.000000    0.500000    0.592338    2.000000 Uiso  0.3650
 Li1_B1_n298 Li+    0.500000    0.000000    0.594338    2.000000 Uiso  1.0000
 Li2_B1_n298 Li+    0.000000    0.500000    0.594338    2.000000 Uiso  0.3650
 Li1_B1_n299 Li+    0.500000    0.000000    0.596338    2.000000 Uiso  1.0000
 Li2_B1_n299 Li+    0.000000    0.500000    0.596338    2.000000 Uiso  0.3650
 Li1_B1_n300 Li+    0.500000    0.000000    0.598338    2.000000 Uiso  1.0000
 Li2_B1_n300 Li+    0.000000    0.500000    0.598338    2.000000 Uiso  0.3650
 Li1_B1_n301 Li+    0.500000    0.000000    0.600338    2.000000 Uiso  1.0000
 Li2_B1_n301 Li+    0.000000    0.500000    0.600338    2.000000 Uiso  0.3650
 Li1_B1_n302 Li+    0.500000    0.000000    0.602338    2.000000 Uiso  1.0000
 Li2_B1_n302 Li+    0.000000    0.500000    0.602338    2.000000 Uiso  0.3650
 Li1_B1_n303 Li+    0.500000    0.000000    0.604338    2.000000 Uiso  1.0000
 Li2_B1_n303 Li+    0.000000    0.500000    0.604338    2.000000 Uiso  0.3650
 Li1_B1_n304 Li+    0.500000    0.000000    0.606338    2.000000 Uiso  1.0000
 Li2_B1_n304 Li+    0.000000    0.500000    0.606338    2.000000 Uiso  0.3650
 Li1_B1_n305 Li+    0.500000    0.000000    0.608338    2.000000 Uiso  1.0000
 Li2_B1_n305 Li+    0.000000    0.500000    0.608338    2.000000 Uiso  0.3650
 Li1_B1_n306 Li+    0.500000    0.000000    0.610338    2.000000 Uiso  1.0000
 Li2_B1_n306 Li+    0.000000    0.500000    0.610338    2.000000 Uiso  0.3650
 Li1_B1_n307 Li+    0.500000    0.000000    0.612338    2.000000 Uiso  1.0000
 Li2_B1_n307 Li+    0.000000    0.500000    0.612338    2.000000 Uiso  0.3650
 Li1_B1_n308 Li+    0.500000    0.000000    0.614338    2.000000 Uiso  1.0000
 Li2_B1_n308 Li+    0.000000    0.500000    0.614338    2.000000 Uiso  0.3650
 Li1_B1_n309 Li+    0.500000    0.000000    0.616338    2.000000 Uiso  1.0000
 Li2_B1_n309 Li+    0.000000    0.500000    0.616338    2.000000 Uiso  0.3650
 Li1_B1_n310 Li+    0.500000    0.000000    0.618338    2.000000 Uiso  1.0000
 Li2_B1_n310 Li+    0.000000    0.500000    0.618338    2.000000 Uiso  0.3650
 Li1_B1_n311 Li+    0.500000    0.000000    0.620338    2.000000 Uiso  1.0000
 Li2_B1_n311 Li+    0.000000    0.500000    0.620338    2.000000 Uiso  0.3650
 Li1_B1_n312 Li+    0.500000    0.000000    0.622338    2.000000 Uiso  1.0000
 Li2_B1_n312 Li+    0.000000    0.500000    0.622338    2.000000 Uiso  0.3650
 Li1_B1_n313 Li+    0.500000    0.000000    0.624338    2.000000 Uiso  1.0000
 Li2_B1_n313 Li+    0.000000    0.500000    0.624338    2.000000 Uiso  0.3650
 Li1_B1_n314 Li+    0.500000    0.000000    0.626338    2.000000 Uiso  1.0000
 Li2_B1_n314 Li+    0.000000    0.500000    0.626338    2.000000 Uiso  0.3650
 Li1_B1_n315 Li+    0.500000    0.000000    0.628338    2.000000 Uiso  1.0000
 Li2_B1_n315 Li+    0.000000    0.500000    0.628338    2.000000 Uiso  0.3650
 Li1_B1_n316 Li+    0.500000    0.000000    0.630338    2.000000 Uiso  1.0000
 Li2_B1_n316 Li+    0.000000    0.500000    0.630338    2.000000 Uiso  0.3650
 Li1_B1_n317 Li+    0.500000    0.000000    0.632338    2.000000 Uiso  1.0000
 Li2_B1_n317 Li+    0.000000    0.500000    0.632338    2.000000 Uiso  0.3650
 Li1_B1_n318 Li+    0.500000    0.000000    0.634338    2.000000 Uiso  1.0000
 Li2_B1_n318 Li+    0.000000    0.500000    0.634338    2.000000 Uiso  0.3650
 Li1_B1_n319 Li+    0.500000    0.000000    0.636338    2.000000 Uiso  1.0000
 Li2_B1_n319 Li+    0.000000    0.500000    0.636338    2.000000 Uiso  0.3650
 Li1_B1_n320 Li+    0.500000    0.000000    0.638338    2.000000 Uiso  1.0000
 Li2_B1_n320 Li+    0.000000    0.500000    0.638338    2.000000 Uiso  0.3650
 Li1_B1_n321 Li+    0.500000    0.000000    0.640338    2.000000 Uiso  1.0000
 Li2_B1_n321 Li+    0.000000    0.500000    0.640338    2.000000 Uiso  0.3650
 Li1_B1_n322 Li+    0.500000    0.000000    0.642338    2.000000 Uiso  1.0000
 Li2_B1_n322 Li+    0.000000    0.500000    0.642338    2.000000 Uiso  0.3650
 Li1_B1_n323 Li+    0.500000    0.000000    0.644338    2.000000 Uiso  1.0000
 Li2_B1_n323 Li+    0.000000    0.500000    0.644338    2.000000 Uiso  0.3650
 Li1_B1_n324 Li+    0.500000    0.000000    0.646338    2.000000 Uiso  1.0000
 Li2_B1_n324 Li+    0.000000    0.500000    0.646338    2.000000 Uiso  0.3650
 Li1_B1_n325 Li+    0.500000    0.000000    0.648338    2.000000 Uiso  1.0000
 Li2_B1_n325 Li+    0.000000    0.500000    0.648338    2.000000 Uiso  0.3650
 Li1_B1_n326 Li+    0.500000    0.000000    0.650338    2.000000 Uiso  1.0000
 Li2_B1_n326 Li+    0.000000    0.500000    0.650338    2.000000 Uiso  0.3650
 Li1_B1_n327 Li+    0.500000    0.000000    0.652338    2.000000 Uiso  1.0000
 Li2_B1_n327 Li+    0.000000    0.500000    0.652338    2.000000 Uiso  0.3650
 Li1_B1_n328 Li+    0.500000    0.000000    0.654338    2.000000 Uiso  1.0000
 Li2_B1_n328 Li+    0.000000    0.500000    0.654338    2.000000 Uiso  0.3650
 Li1_B1_n329 Li+    0.500000    0.000000    0.656338    2.000000 Uiso  1.0000
 Li2_B1_n329 Li+    0.000000    0.500000    0.656338    2.000000 Uiso  0.3650
 Li1_B1_n330 Li+    0.500000    0.000000    0.658338    2.000000 Uiso  1.0000
 Li2_B1_n330 Li+    0.000000    0.500000    0.658338    2.000000 Uiso  0.3650
 Li1_B1_n331 Li+    0.500000    0.000000    0.660338    2.000000 Uiso  1.0000
 Li2_B1_n331 Li+    0.000000    0.500000    0.660338    2.000000 Uiso  0.3650
 Li1_B1_n332 Li+    0.500000    0.000000    0.662338    2.000000 Uiso  1.0000
 Li2_B1_n332 Li+    0.000000    0.500000    0.662338    2.000000 Uiso  0.3650
 Li1_B1_n333 Li+    0.500000    0.000000    0.664338    2.000000 Uiso  1.0000
 Li2_B1_n333 Li+    0.000000    0.500000    0.664338    2.000000 Uiso  0.3650
 Li1_B1_n334 Li+    0.500000    0.000000    0.666338    2.000000 Uiso  1.0000
 Li2_B1_n334 Li+    0.000000    0.500000    0.666338    2.000000 Uiso  0.3650
 Li1_B1_n335 Li+    0.500000    0.000000    0.668338    2.000000 Uiso  1.0000
 Li2_B1_n335 Li+    0.000000    0.500000    0.668338    2.000000 Uiso  0.3650
 Li1_B1_n336 Li+    0.500000    0.000000    0.670338    2.000000 Uiso  1.0000
 Li2_B1_n336 Li+    0.000000    0.500000    0.670338    2.000000 Uiso  0.3650
 Li1_B1_n337 Li+    0.500000    0.000000    0.672338    2.000000 Uiso  1.0000
 Li2_B1_n337 Li+    0.000000    0.500000    0.672338    2.000000 Uiso  0.3650
 Li1_B1_n338 Li+    0.500000    0.000000    0.674338    2.000000 Uiso  1.0000
 Li2_B1_n338 Li+    0.000000    0.500000    0.674338    2.000000 Uiso  0.3650
 Li1_B1_n339 Li+    0.500000    0.000000    0.676338    2.000000 Uiso  1.0000
 Li2_B1_n339 Li+    0.000000    0.500000    0.676338    2.000000 Uiso  0.3650
 Li1_B1_n340 Li+    0.500000    0.000000    0.678338    2.000000 Uiso  1.0000
 Li2_B1_n340 Li+    0.000000    0.500000    0.678338    2.000000 Uiso  0.3650
 Li1_B1_n341 Li+    0.500000    0.000000    0.680338    2.000000 Uiso  1.0000
 Li2_B1_n341 Li+    0.000000    0.500000    0.680338    2.000000 Uiso  0.3650
 Li1_B1_n342 Li+    0.500000    0.000000    0.682338    2.000000 Uiso  1.0000
 Li2_B1_n342 Li+    0.000000    0.500000    0.682338    2.000000 Uiso  0.3650
 Li1_B1_n343 Li+    0.500000    0.000000    0.684338    2.000000 Uiso  1.0000
 Li2_B1_n343 Li+    0.000000    0.500000    0.684338    2.000000 Uiso  0.3650
 Li1_B1_n344 Li+    0.500000    0.000000    0.686338    2.000000 Uiso  1.0000
 Li2_B1_n344 Li+    0.000000    0.500000    0.686338    2.000000 Uiso  0.3650
 Li1_B1_n345 Li+    0.500000    0.000000    0.688338    2.000000 Uiso  1.0000
 Li2_B1_n345 Li+    0.000000    0.500000    0.688338    2.000000 Uiso  0.3650
 Li1_B1_n346 Li+    0.500000    0.000000    0.690338    2.000000 Uiso  1.0000
 Li2_B1_n346 Li+    0.000000    0.500000    0.690338    2.000000 Uiso  0.3650
 Li1_B1_n347 Li+    0.500000    0.000000    0.692338    2.000000 Uiso  1.0000
 Li2_B1_n347 Li+    0.000000    0.500000    0.692338    2.000000 Uiso  0.3650
 Li1_B1_n348 Li+    0.500000    0.000000    0.694338    2.000000 Uiso  1.0000
 Li2_B1_n348 Li+    0.000000    0.500000    0.694338    2.000000 Uiso  0.3650
 Li1_B1_n349 Li+    0.500000    0.000000    0.696338    2.000000 Uiso  1.0000
 Li2_B1_n349 Li+    0.000000    0.500000    0.696338    2.000000 Uiso  0.3650
 Li1_B1_n350 Li+    0.500000    0.000000    0.698338    2.000000 Uiso  1.0000
 Li2_B1_n350 Li+    0.000000    0.500000    0.698338    2.000000 Uiso  0.3650
 Li1_B1_n351 Li+    0.500000    0.000000    0.700338    2.000000 Uiso  1.0000
 Li2_B1_n351 Li+    0.000000    0.500000    0.700338    2.000000 Uiso  0.3650
 Li1_B1_n352 Li+    0.500000    0.000000    0.702338    2.000000 Uiso  1.0000
 Li2_B1_n352 Li+    0.000000    0.500000    0.702338    2.000000 Uiso  0.3650
 Li1_B1_n353 Li+    0.500000    0.000000    0.704338    2.000000 Uiso  1.0000
 Li2_B1_n353 Li+    0.000000    0.500000    0.704338    2.000000 Uiso  0.3650
 Li1_B1_n354 Li+    0.500000    0.000000    0.706338    2.000000 Uiso  1.0000
 Li2_B1_n354 Li+    0.000000    0.500000    0.706338    2.000000 Uiso  0.3650
 Li1_B1_n355 Li+    0.500000    0.000000    0.708338    2.000000 Uiso  1.0000
 Li2_B1_n355 Li+    0.000000    0.500000    0.708338    2.000000 Uiso  0.3650
 Li1_B1_n356 Li+    0.500000    0.000000    0.710338    2.000000 Uiso  1.0000
 Li2_B1_n356 Li+    0.000000    0.500000    0.710338    2.000000 Uiso  0.3650
 Li1_B1_n357 Li+    0.500000    0.000000    0.712338    2.000000 Uiso  1.0000
 Li2_B1_n357 Li+    0.000000    0.500000    0.712338    2.000000 Uiso  0.3650
 Li1_B1_n358 Li+    0.500000    0.000000    0.714338    2.000000 Uiso  1.0000
 Li2_B1_n358 Li+    0.000000    0.500000    0.714338    2.000000 Uiso  0.3650
 Li1_B1_n359 Li+    0.500000    0.000000    0.716338    2.000000 Uiso  1.0000
 Li2_B1_n359 Li+    0.000000    0.500000    0.716338    2.000000 Uiso  0.3650
 Li1_B1_n360 Li+    0.500000    0.000000    0.718338    2.000000 Uiso  1.0000
 Li2_B1_n360 Li+    0.000000    0.500000    0.718338    2.000000 Uiso  0.3650
 Li1_B1_n361 Li+    0.500000    0.000000    0.720338    2.000000 Uiso  1.0000
 Li2_B1_n361 Li+    0.000000    0.500000    0.720338    2.000000 Uiso  0.3650
 Li1_B1_n362 Li+    0.500000    0.000000    0.722338    2.000000 Uiso  1.0000
 Li2_B1_n362 Li+    0.000000    0.500000    0.722338    2.000000 Uiso  0.3650
 Li1_B1_n363 Li+    0.500000    0.000000    0.724338    2.000000 Uiso  1.0000
 Li2_B1_n363 Li+    0.000000    0.500000    0.724338    2.000000 Uiso  0.3650
 Li1_B1_n364 Li+    0.500000    0.000000    0.726338    2.000000 Uiso  1.0000
 Li2_B1_n364 Li+    0.000000    0.500000    0.726338    2.000000 Uiso  0.3650
 Li1_B1_n365 Li+    0.500000    0.000000    0.728338    2.000000 Uiso  1.0000
 Li2_B1_n365 Li+    0.000000    0.500000    0.728338    2.000000 Uiso  0.3650
 Li1_B1_n366 Li+    0.500000    0.000000    0.730338    2.000000 Uiso  1.0000
 Li2_B1_n366 Li+    0.000000    0.500000    0.730338    2.000000 Uiso  0.3650
 Li1_B1_n367 Li+    0.500000    0.000000    0.732338    2.000000 Uiso  1.0000
 Li2_B1_n367 Li+    0.000000    0.500000    0.732338    2.000000 Uiso  0.3650
 Li1_B1_n368 Li+    0.500000    0.000000    0.734338    2.000000 Uiso  1.0000
 Li2_B1_n368 Li+    0.000000    0.500000    0.734338    2.000000 Uiso  0.3650
 Li1_B1_n369 Li+    0.500000    0.000000    0.736338    2.000000 Uiso  1.0000
 Li2_B1_n369 Li+    0.000000    0.500000    0.736338    2.000000 Uiso  0.3650
 Li1_B1_n370 Li+    0.500000    0.000000    0.738338    2.000000 Uiso  1.0000
 Li2_B1_n370 Li+    0.000000    0.500000    0.738338    2.000000 Uiso  0.3650
 Li1_B1_n371 Li+    0.500000    0.000000    0.740338    2.000000 Uiso  1.0000
 Li2_B1_n371 Li+    0.000000    0.500000    0.740338    2.000000 Uiso  0.3650
 Li1_B1_n372 Li+    0.500000    0.000000    0.742338    2.000000 Uiso  1.0000
 Li2_B1_n372 Li+    0.000000    0.500000    0.742338    2.000000 Uiso  0.3650
 Li1_B1_n373 Li+    0.500000    0.000000    0.744338    2.000000 Uiso  1.0000
 Li2_B1_n373 Li+    0.000000    0.500000    0.744338    2.000000 Uiso  0.3650
 Li1_B1_n374 Li+    0.500000    0.000000    0.746338    2.000000 Uiso  1.0000
 Li2_B1_n374 Li+    0.000000    0.500000    0.746338    2.000000 Uiso  0.3650
 Li1_B1_n375 Li+    0.500000    0.000000    0.748338    2.000000 Uiso  1.0000
 Li2_B1_n375 Li+    0.000000    0.500000    0.748338    2.000000 Uiso  0.3650
 Li1_B1_n376 Li+    0.500000    0.000000    0.750338    2.000000 Uiso  1.0000
 Li2_B1_n376 Li+    0.000000    0.500000    0.750338    2.000000 Uiso  0.3650
 Li1_B1_n377 Li+    0.500000    0.000000    0.752338    2.000000 Uiso  1.0000
 Li2_B1_n377 Li+    0.000000    0.500000    0.752338    2.000000 Uiso  0.3650
 Li1_B1_n378 Li+    0.500000    0.000000    0.754338    2.000000 Uiso  1.0000
 Li2_B1_n378 Li+    0.000000    0.500000    0.754338    2.000000 Uiso  0.3650
 Li1_B1_n379 Li+    0.500000    0.000000    0.756338    2.000000 Uiso  1.0000
 Li2_B1_n379 Li+    0.000000    0.500000    0.756338    2.000000 Uiso  0.3650
 Li1_B1_n380 Li+    0.500000    0.000000    0.758338    2.000000 Uiso  1.0000
 Li2_B1_n380 Li+    0.000000    0.500000    0.758338    2.000000 Uiso  0.3650
 Li1_B1_n381 Li+    0.500000    0.000000    0.760338    2.000000 Uiso  1.0000
 Li2_B1_n381 Li+    0.000000    0.500000    0.760338    2.000000 Uiso  0.3650
 Li1_B1_n382 Li+    0.500000    0.000000    0.762338    2.000000 Uiso  1.0000
 Li2_B1_n382 Li+    0.000000    0.500000    0.762338    2.000000 Uiso  0.3650
 Li1_B1_n383 Li+    0.500000    0.000000    0.764338    2.000000 Uiso  1.0000
 Li2_B1_n383 Li+    0.000000    0.500000    0.764338    2.000000 Uiso  0.3650
 Li1_B1_n384 Li+    0.500000    0.000000    0.766338    2.000000 Uiso  1.0000
 Li2_B1_n384 Li+    0.000000    0.500000    0.766338    2.000000 Uiso  0.3650
 Li1_B1_n385 Li+    0.500000    0.000000    0.768338    2.000000 Uiso  1.0000
 Li2_B1_n385 Li+    0.000000    0.500000    0.768338    2.000000 Uiso  0.3650
 Li1_B1_n386 Li+    0.500000    0.000000    0.770338    2.000000 Uiso  1.0000
 Li2_B1_n386 Li+    0.000000    0.500000    0.770338    2.000000 Uiso  0.3650
 Li1_B1_n387 Li+    0.500000    0.000000    0.772338    2.000000 Uiso  1.0000
 Li2_B1_n387 Li+    0.000000    0.500000    0.772338    2.000000 Uiso  0.3650
 Li1_B1_n388 Li+    0.500000    0.000000    0.774338    2.000000 Uiso  1.0000
 Li2_B1_n388 Li+    0.000000    0.500000    0.774338    2.000000 Uiso  0.3650
 Li1_B1_n389 Li+    0.500000    0.000000    0.776338    2.000000 Uiso  1.0000
 Li2_B1_n389 Li+    0.000000    0.500000    0.776338    2.000000 Uiso  0.3650
 Li1_B1_n390 Li+    0.500000    0.000000    0.778338    2.000000 Uiso  1.0000
 Li2_B1_n390 Li+    0.000000    0.500000    0.778338    2.000000 Uiso  0.3650
 Li1_B1_n391 Li+    0.500000    0.000000    0.780338    2.000000 Uiso  1.0000
 Li2_B1_n391 Li+    0.000000    0.500000    0.780338    2.000000 Uiso  0.3650
 Li1_B1_n392 Li+    0.500000    0.000000    0.782338    2.000000 Uiso  1.0000
 Li2_B1_n392 Li+    0.000000    0.500000    0.782338    2.000000 Uiso  0.3650
 Li1_B1_n393 Li+    0.500000    0.000000    0.784338    2.000000 Uiso  1.0000
 Li2_B1_n393 Li+    0.000000    0.500000    0.784338    2.000000 Uiso  0.3650
 Li1_B1_n394 Li+    0.500000    0.000000    0.786338    2.000000 Uiso  1.0000
 Li2_B1_n394 Li+    0.000000    0.500000    0.786338    2.000000 Uiso  0.3650
 Li1_B1_n395 Li+    0.500000    0.000000    0.788338    2.000000 Uiso  1.0000
 Li2_B1_n395 Li+    0.000000    0.500000    0.788338    2.000000 Uiso  0.3650
 Li1_B1_n396 Li+    0.500000    0.000000    0.790338    2.000000 Uiso  1.0000
 Li2_B1_n396 Li+    0.000000    0.500000    0.790338    2.000000 Uiso  0.3650
 Li1_B1_n397 Li+    0.500000    0.000000    0.792338    2.000000 Uiso  1.0000
 Li2_B1_n397 Li+    0.000000    0.500000    0.792338    2.000000 Uiso  0.3650
 Li1_B1_n398 Li+    0.500000    0.000000    0.794338    2.000000 Uiso  1.0000
 Li2_B1_n398 Li+    0.000000    0.500000    0.794338    2.000000 Uiso  0.3650
 Li1_B1_n399 Li+    0.500000    0.000000    0.796338    2.000000 Uiso  1.0000
 Li2_B1_n399 Li+    0.000000    0.500000    0.796338    2.000000 Uiso  0.3650
 Li1_B1_n400 Li+    0.500000    0.000000    0.798338    2.000000 Uiso  1.0000
 Li2_B1_n400 Li+    0.000000    0.500000    0.798338    2.000000 Uiso  0.3650
 Li1_B1_n401 Li+    0.500000    0.000000    0.800338    2.000000 Uiso  1.0000
 Li2_B1_n401 Li+    0.000000    0.500000    0.800338    2.000000 Uiso  0.3650
 Li1_B1_n402 Li+    0.500000    0.000000    0.802338    2.000000 Uiso  1.0000
 Li2_B1_n402 Li+    0.000000    0.500000    0.802338    2.000000 Uiso  0.3650
 Li1_B1_n403 Li+    0.500000    0.000000    0.804338    2.000000 Uiso  1.0000
 Li2_B1_n403 Li+    0.000000    0.500000    0.804338    2.000000 Uiso  0.3650
 Li1_B1_n404 Li+    0.500000    0.000000    0.806338    2.000000 Uiso  1.0000
 Li2_B1_n404 Li+    0.000000    0.500000    0.806338    2.000000 Uiso  0.3650
 Li1_B1_n405 Li+    0.500000    0.000000    0.808338    2.000000 Uiso  1.0000
 Li2_B1_n405 Li+    0.000000    0.500000    0.808338    2.000000 Uiso  0.3650
 Li1_B1_n406 Li+    0.500000    0.000000    0.810338    2.000000 Uiso  1.0000
 Li2_B1_n406 Li+    0.000000    0.500000    0.810338    2.000000 Uiso  0.3650
 Li1_B1_n407 Li+    0.500000    0.000000    0.812338    2.000000 Uiso  1.0000
 Li2_B1_n407 Li+    0.000000    0.500000    0.812338    2.000000 Uiso  0.3650
 Li1_B1_n408 Li+    0.500000    0.000000    0.814338    2.000000 Uiso  1.0000
 Li2_B1_n408 Li+    0.000000    0.500000    0.814338    2.000000 Uiso  0.3650
 Li1_B1_n409 Li+    0.500000    0.000000    0.816338    2.000000 Uiso  1.0000
 Li2_B1_n409 Li+    0.000000    0.500000    0.816338    2.000000 Uiso  0.3650
 Li1_B1_n410 Li+    0.500000    0.000000    0.818338    2.000000 Uiso  1.0000
 Li2_B1_n410 Li+    0.000000    0.500000    0.818338    2.000000 Uiso  0.3650
 Li1_B1_n411 Li+    0.500000    0.000000    0.820338    2.000000 Uiso  1.0000
 Li2_B1_n411 Li+    0.000000    0.500000    0.820338    2.000000 Uiso  0.3650
 Li1_B1_n412 Li+    0.500000    0.000000    0.822338    2.000000 Uiso  1.0000
 Li2_B1_n412 Li+    0.000000    0.500000    0.822338    2.000000 Uiso  0.3650
 Li1_B1_n413 Li+    0.500000    0.000000    0.824338    2.000000 Uiso  1.0000
 Li2_B1_n413 Li+    0.000000    0.500000    0.824338    2.000000 Uiso  0.3650
 Li1_B1_n414 Li+    0.500000    0.000000    0.826338    2.000000 Uiso  1.0000
 Li2_B1_n414 Li+    0.000000    0.500000    0.826338    2.000000 Uiso  0.3650
 Li1_B1_n415 Li+    0.500000    0.000000    0.828338    2.000000 Uiso  1.0000
 Li2_B1_n415 Li+    0.000000    0.500000    0.828338    2.000000 Uiso  0.3650
 Li1_B1_n416 Li+    0.500000    0.000000    0.830338    2.000000 Uiso  1.0000
 Li2_B1_n416 Li+    0.000000    0.500000    0.830338    2.000000 Uiso  0.3650
 Li1_B1_n417 Li+    0.500000    0.000000    0.832338    2.000000 Uiso  1.0000
 Li2_B1_n417 Li+    0.000000    0.500000    0.832338    2.000000 Uiso  0.3650
 Li1_B1_n418 Li+    0.500000    0.000000    0.834338    2.000000 Uiso  1.0000
 Li2_B1_n418 Li+    0.000000    0.500000    0.834338    2.000000 Uiso  0.3650
 Li1_B1_n419 Li+    0.500000    0.000000    0.836338    2.000000 Uiso  1.0000
 Li2_B1_n419 Li+    0.000000    0.500000    0.836338    2.000000 Uiso  0.3650
 Li1_B1_n420 Li+    0.500000    0.000000    0.838338    2.000000 Uiso  1.0000
 Li2_B1_n420 Li+    0.000000    0.500000    0.838338    2.000000 Uiso  0.3650
 Li1_B1_n421 Li+    0.500000    0.000000    0.840338    2.000000 Uiso  1.0000
 Li2_B1_n421 Li+    0.000000    0.500000    0.840338    2.000000 Uiso  0.3650
 Li1_B1_n422 Li+    0.500000    0.000000    0.842338    2.000000 Uiso  1.0000
 Li2_B1_n422 Li+    0.000000    0.500000    0.842338    2.000000 Uiso  0.3650
 Li1_B1_n423 Li+    0.500000    0.000000    0.844338    2.000000 Uiso  1.0000
 Li2_B1_n423 Li+    0.000000    0.500000    0.844338    2.000000 Uiso  0.3650
 Li1_B1_n424 Li+    0.500000    0.000000    0.846338    2.000000 Uiso  1.0000
 Li2_B1_n424 Li+    0.000000    0.500000    0.846338    2.000000 Uiso  0.3650
 Li1_B1_n425 Li+    0.500000    0.000000    0.848338    2.000000 Uiso  1.0000
 Li2_B1_n425 Li+    0.000000    0.500000    0.848338    2.000000 Uiso  0.3650
 Li1_B1_n426 Li+    0.500000    0.000000    0.850338    2.000000 Uiso  1.0000
 Li2_B1_n426 Li+    0.000000    0.500000    0.850338    2.000000 Uiso  0.3650
 Li1_B1_n427 Li+    0.500000    0.000000    0.852338    2.000000 Uiso  1.0000
 Li2_B1_n427 Li+    0.000000    0.500000    0.852338    2.000000 Uiso  0.3650
 Li1_B1_n428 Li+    0.500000    0.000000    0.854338    2.000000 Uiso  1.0000
 Li2_B1_n428 Li+    0.000000    0.500000    0.854338    2.000000 Uiso  0.3650
 Li1_B1_n429 Li+    0.500000    0.000000    0.856338    2.000000 Uiso  1.0000
 Li2_B1_n429 Li+    0.000000    0.500000    0.856338    2.000000 Uiso  0.3650
 Li1_B1_n430 Li+    0.500000    0.000000    0.858338    2.000000 Uiso  1.0000
 Li2_B1_n430 Li+    0.000000    0.500000    0.858338    2.000000 Uiso  0.3650
 Li1_B1_n431 Li+    0.500000    0.000000    0.860338    2.000000 Uiso  1.0000
 Li2_B1_n431 Li+    0.000000    0.500000    0.860338    2.000000 Uiso  0.3650
 Li1_B1_n432 Li+    0.500000    0.000000    0.862338    2.000000 Uiso  1.0000
 Li2_B1_n432 Li+    0.000000    0.500000    0.862338    2.000000 Uiso  0.3650
 Li1_B1_n433 Li+    0.500000    0.000000    0.864338    2.000000 Uiso  1.0000
 Li2_B1_n433 Li+    0.000000    0.500000    0.864338    2.000000 Uiso  0.3650
 Li1_B1_n434 Li+    0.500000    0.000000    0.866338    2.000000 Uiso  1.0000
 Li2_B1_n434 Li+    0.000000    0.500000    0.866338    2.000000 Uiso  0.3650
 Li1_B1_n435 Li+    0.500000    0.000000    0.868338    2.000000 Uiso  1.0000
 Li2_B1_n435 Li+    0.000000    0.500000    0.868338    2.000000 Uiso  0.3650
 Li1_B1_n436 Li+    0.500000    0.000000    0.870338    2.000000 Uiso  1.0000
 Li2_B1_n436 Li+    0.000000    0.500000    0.870338    2.000000 Uiso  0.3650
 Li1_B1_n437 Li+    0.500000    0.000000    0.872338    2.000000 Uiso  1.0000
 Li2_B1_n437 Li+    0.000000    0.500000    0.872338    2.000000 Uiso  0.3650
 Li1_B1_n438 Li+    0.500000    0.000000    0.874338    2.000000 Uiso  1.0000
 Li2_B1_n438 Li+    0.000000    0.500000    0.874338    2.000000 Uiso  0.3650
 Li1_B1_n439 Li+    0.500000    0.000000    0.876338    2.000000 Uiso  1.0000
 Li2_B1_n439 Li+    0.000000    0.500000    0.876338    2.000000 Uiso  0.3650
 Li1_B1_n440 Li+    0.500000    0.000000    0.878338    2.000000 Uiso  1.0000
 Li2_B1_n440 Li+    0.000000    0.500000    0.878338    2.000000 Uiso  0.3650
 Li1_B1_n441 Li+    0.500000    0.000000    0.880338    2.000000 Uiso  1.0000
 Li2_B1_n441 Li+    0.000000    0.500000    0.880338    2.000000 Uiso  0.3650
 Li1_B1_n442 Li+    0.500000    0.000000    0.882338    2.000000 Uiso  1.0000
 Li2_B1_n442 Li+    0.000000    0.500000    0.882338    2.000000 Uiso  0.3650
 Li1_B1_n443 Li+    0.500000    0.000000    0.884338    2.000000 Uiso  1.0000
 Li2_B1_n443 Li+    0.000000    0.500000    0.884338    2.000000 Uiso  0.3650
 Li1_B1_n444 Li+    0.500000    0.000000    0.886338    2.000000 Uiso  1.0000
 Li2_B1_n444 Li+    0.000000    0.500000    0.886338    2.000000 Uiso  0.3650
 Li1_B1_n445 Li+    0.500000    0.000000    0.888338    2.000000 Uiso  1.0000
 Li2_B1_n445 Li+    0.000000    0.500000    0.888338    2.000000 Uiso  0.3650
 Li1_B1_n446 Li+    0.500000    0.000000    0.890338    2.000000 Uiso  1.0000
 Li2_B1_n446 Li+    0.000000    0.500000    0.890338    2.000000 Uiso  0.3650
 Li1_B1_n447 Li+    0.500000    0.000000    0.892338    2.000000 Uiso  1.0000
 Li2_B1_n447 Li+    0.000000    0.500000    0.892338    2.000000 Uiso  0.3650
 Li1_B1_n448 Li+    0.500000    0.000000    0.894338    2.000000 Uiso  1.0000
 Li2_B1_n448 Li+    0.000000    0.500000    0.894338    2.000000 Uiso  0.3650
 Li1_B1_n449 Li+    0.500000    0.000000    0.896338    2.000000 Uiso  1.0000
 Li2_B1_n449 Li+    0.000000    0.500000    0.896338    2.000000 Uiso  0.3650
 Li1_B1_n450 Li+    0.500000    0.000000    0.898338    2.000000 Uiso  1.0000
 Li2_B1_n450 Li+    0.000000    0.500000    0.898338    2.000000 Uiso  0.3650
 Li1_B1_n451 Li+    0.500000    0.000000    0.900338    2.000000 Uiso  1.0000
 Li2_B1_n451 Li+    0.000000    0.500000    0.900338    2.000000 Uiso  0.3650
 Li1_B1_n452 Li+    0.500000    0.000000    0.902338    2.000000 Uiso  1.0000
 Li2_B1_n452 Li+    0.000000    0.500000    0.902338    2.000000 Uiso  0.3650
 Li1_B1_n453 Li+    0.500000    0.000000    0.904338    2.000000 Uiso  1.0000
 Li2_B1_n453 Li+    0.000000    0.500000    0.904338    2.000000 Uiso  0.3650
 Li1_B1_n454 Li+    0.500000    0.000000    0.906338    2.000000 Uiso  1.0000
 Li2_B1_n454 Li+    0.000000    0.500000    0.906338    2.000000 Uiso  0.3650
 Li1_B1_n455 Li+    0.500000    0.000000    0.908338    2.000000 Uiso  1.0000
 Li2_B1_n455 Li+    0.000000    0.500000    0.908338    2.000000 Uiso  0.3650
 Li1_B1_n456 Li+    0.500000    0.000000    0.910338    2.000000 Uiso  1.0000
 Li2_B1_n456 Li+    0.000000    0.500000    0.910338    2.000000 Uiso  0.3650
 Li1_B1_n457 Li+    0.500000    0.000000    0.912338    2.000000 Uiso  1.0000
 Li2_B1_n457 Li+    0.000000    0.500000    0.912338    2.000000 Uiso  0.3650
 Li1_B1_n458 Li+    0.500000    0.000000    0.914338    2.000000 Uiso  1.0000
 Li2_B1_n458 Li+    0.000000    0.500000    0.914338    2.000000 Uiso  0.3650
 Li1_B1_n459 Li+    0.500000    0.000000    0.916338    2.000000 Uiso  1.0000
 Li2_B1_n459 Li+    0.000000    0.500000    0.916338    2.000000 Uiso  0.3650
 Li1_B1_n460 Li+    0.500000    0.000000    0.918338    2.000000 Uiso  1.0000
 Li2_B1_n460 Li+    0.000000    0.500000    0.918338    2.000000 Uiso  0.3650
 Li1_B1_n461 Li+    0.500000    0.000000    0.920338    2.000000 Uiso  1.0000
 Li2_B1_n461 Li+    0.000000    0.500000    0.920338    2.000000 Uiso  0.3650
 Li1_B1_n462 Li+    0.500000    0.000000    0.922338    2.000000 Uiso  1.0000
 Li2_B1_n462 Li+    0.000000    0.500000    0.922338    2.000000 Uiso  0.3650
 Li1_B1_n463 Li+    0.500000    0.000000    0.924338    2.000000 Uiso  1.0000
 Li2_B1_n463 Li+    0.000000    0.500000    0.924338    2.000000 Uiso  0.3650
 Li1_B1_n464 Li+    0.500000    0.000000    0.926338    2.000000 Uiso  1.0000
 Li2_B1_n464 Li+    0.000000    0.500000    0.926338    2.000000 Uiso  0.3650
 Li1_B1_n465 Li+    0.500000    0.000000    0.928338    2.000000 Uiso  1.0000
 Li2_B1_n465 Li+    0.000000    0.500000    0.928338    2.000000 Uiso  0.3650
 Li1_B1_n466 Li+    0.500000    0.000000    0.930338    2.000000 Uiso  1.0000
 Li2_B1_n466 Li+    0.000000    0.500000    0.930338    2.000000 Uiso  0.3650
 Li1_B1_n467 Li+    0.500000    0.000000    0.932338    2.000000 Uiso  1.0000
 Li2_B1_n467 Li+    0.000000    0.500000    0.932338    2.000000 Uiso  0.3650
 Li1_B1_n468 Li+    0.500000    0.000000    0.934338    2.000000 Uiso  1.0000
 Li2_B1_n468 Li+    0.000000    0.500000    0.934338    2.000000 Uiso  0.3650
 Li1_B1_n469 Li+    0.500000    0.000000    0.936338    2.000000 Uiso  1.0000
 Li2_B1_n469 Li+    0.000000    0.500000    0.936338    2.000000 Uiso  0.3650
 Li1_B1_n470 Li+    0.500000    0.000000    0.938338    2.000000 Uiso  1.0000
 Li2_B1_n470 Li+    0.000000    0.500000    0.938338    2.000000 Uiso  0.3650
 Li1_B1_n471 Li+    0.500000    0.000000    0.940338    2.000000 Uiso  1.0000
 Li2_B1_n471 Li+    0.000000    0.500000    0.940338    2.000000 Uiso  0.3650
 Li1_B1_n472 Li+    0.500000    0.000000    0.942338    2.000000 Uiso  1.0000
 Li2_B1_n472 Li+    0.000000    0.500000    0.942338    2.000000 Uiso  0.3650
 Li1_B1_n473 Li+    0.500000    0.000000    0.944338    2.000000 Uiso  1.0000
 Li2_B1_n473 Li+    0.000000    0.500000    0.944338    2.000000 Uiso  0.3650
 Li1_B1_n474 Li+    0.500000    0.000000    0.946338    2.000000 Uiso  1.0000
 Li2_B1_n474 Li+    0.000000    0.500000    0.946338    2.000000 Uiso  0.3650
 Li1_B1_n475 Li+    0.500000    0.000000    0.948338    2.000000 Uiso  1.0000
 Li2_B1_n475 Li+    0.000000    0.500000    0.948338    2.000000 Uiso  0.3650
 Li1_B1_n476 Li+    0.500000    0.000000    0.950338    2.000000 Uiso  1.0000
 Li2_B1_n476 Li+    0.000000    0.500000    0.950338    2.000000 Uiso  0.3650
 Li1_B1_n477 Li+    0.500000    0.000000    0.952338    2.000000 Uiso  1.0000
 Li2_B1_n477 Li+    0.000000    0.500000    0.952338    2.000000 Uiso  0.3650
 Li1_B1_n478 Li+    0.500000    0.000000    0.954338    2.000000 Uiso  1.0000
 Li2_B1_n478 Li+    0.000000    0.500000    0.954338    2.000000 Uiso  0.3650
 Li1_B1_n479 Li+    0.500000    0.000000    0.956338    2.000000 Uiso  1.0000
 Li2_B1_n479 Li+    0.000000    0.500000    0.956338    2.000000 Uiso  0.3650
 Li1_B1_n480 Li+    0.500000    0.000000    0.958338    2.000000 Uiso  1.0000
 Li2_B1_n480 Li+    0.000000    0.500000    0.958338    2.000000 Uiso  0.3650
 Li1_B1_n481 Li+    0.500000    0.000000    0.960338    2.000000 Uiso  1.0000
 Li2_B1_n481 Li+    0.000000    0.500000    0.960338    2.000000 Uiso  0.3650
 Li1_B1_n482 Li+    0.500000    0.000000    0.962338    2.000000 Uiso  1.0000
 Li2_B1_n482 Li+    0.000000    0.500000    0.962338    2.000000 Uiso  0.3650
 Li1_B1_n483 Li+    0.500000    0.000000    0.964338    2.000000 Uiso  1.0000
 Li2_B1_n483 Li+    0.000000    0.500000    0.964338    2.000000 Uiso  0.3650
 Li1_B1_n484 Li+    0.500000    0.000000    0.966338    2.000000 Uiso  1.0000
 Li2_B1_n484 Li+    0.000000    0.500000    0.966338    2.000000 Uiso  0.3650
 Li1_B1_n485 Li+    0.500000    0.000000    0.968338    2.000000 Uiso  1.0000
 Li2_B1_n485 Li+    0.000000    0.500000    0.968338    2.000000 Uiso  0.3650
 Li1_B1_n486 Li+    0.500000    0.000000    0.970338    2.000000 Uiso  1.0000
 Li2_B1_n486 Li+    0.000000    0.500000    0.970338    2.000000 Uiso  0.3650
 Li1_B1_n487 Li+    0.500000    0.000000    0.972338    2.000000 Uiso  1.0000
 Li2_B1_n487 Li+    0.000000    0.500000    0.972338    2.000000 Uiso  0.3650
 Li1_B1_n488 Li+    0.500000    0.000000    0.974338    2.000000 Uiso  1.0000
 Li2_B1_n488 Li+    0.000000    0.500000    0.974338    2.000000 Uiso  0.3650
 Li1_B1_n489 Li+    0.500000    0.000000    0.976338    2.000000 Uiso  1.0000
 Li2_B1_n489 Li+    0.000000    0.500000    0.976338    2.000000 Uiso  0.3650
 Li1_B1_n490 Li+    0.500000    0.000000    0.978338    2.000000 Uiso  1.0000
 Li2_B1_n490 Li+    0.000000    0.500000    0.978338    2.000000 Uiso  0.3650
 Li1_B1_n491 Li+    0.500000    0.000000    0.980338    2.000000 Uiso  1.0000
 Li2_B1_n491 Li+    0.000000    0.500000    0.980338    2.000000 Uiso  0.3650
 Li1_B1_n492 Li+    0.500000    0.000000    0.982338    2.000000 Uiso  1.0000
 Li2_B1_n492 Li+    0.000000    0.500000    0.982338    2.000000 Uiso  0.3650
 Li1_B1_n493 Li+    0.500000    0.000000    0.984338    2.000000 Uiso  1.0000
 Li2_B1_n493 Li+    0.000000    0.500000    0.984338    2.000000 Uiso  0.3650
 Li1_B1_n494 Li+    0.500000    0.000000    0.986338    2.000000 Uiso  1.0000
 Li2_B1_n494 Li+    0.000000    0.500000    0.986338    2.000000 Uiso  0.3650
 Li1_B1_n495 Li+    0.500000    0.000000    0.988338    2.000000 Uiso  1.0000
 Li2_B1_n495 Li+    0.000000    0.500000    0.988338    2.000000 Uiso  0.3650
 Li1_B1_n496 Li+    0.500000    0.000000    0.990338    2.000000 Uiso  1.0000
 Li2_B1_n496 Li+    0.000000    0.500000    0.990338    2.000000 Uiso  0.3650
 Li1_B1_n497 Li+    0.500000    0.000000    0.992338    2.000000 Uiso  1.0000
 Li2_B1_n497 Li+    0.000000    0.500000    0.992338    2.000000 Uiso  0.3650
 Li1_B1_n498 Li+    0.500000    0.000000    0.994338    2.000000 Uiso  1.0000
 Li2_B1_n498 Li+    0.000000    0.500000    0.994338    2.000000 Uiso  0.3650
 Li1_B1_n499 Li+    0.500000    0.000000    0.996338    2.000000 Uiso  1.0000
 Li2_B1_n499 Li+    0.000000    0.500000    0.996338    2.000000 Uiso  0.3650
 Li1_B1_n500 Li+    0.500000    0.000000    0.998338    2.000000 Uiso  1.0000
 Li2_B1_n500 Li+    0.000000    0.500000    0.998338    2.000000 Uiso  0.3650
 Li1_B2_n1 Li+    0.000000    0.000000    0.000662    2.000000 Uiso  1.0000
 Li2_B2_n1 Li+    0.500000    0.500000    0.000662    2.000000 Uiso  0.3650
 Li1_B2_n2 Li+    0.000000    0.000000    0.002662    2.000000 Uiso  1.0000
 Li2_B2_n2 Li+    0.500000    0.500000    0.002662    2.000000 Uiso  0.3650
 Li1_B2_n3 Li+    0.000000    0.000000    0.004662    2.000000 Uiso  1.0000
 Li2_B2_n3 Li+    0.500000    0.500000    0.004662    2.000000 Uiso  0.3650
 Li1_B2_n4 Li+    0.000000    0.000000    0.006662    2.000000 Uiso  1.0000
 Li2_B2_n4 Li+    0.500000    0.500000    0.006662    2.000000 Uiso  0.3650
 Li1_B2_n5 Li+    0.000000    0.000000    0.008662    2.000000 Uiso  1.0000
 Li2_B2_n5 Li+    0.500000    0.500000    0.008662    2.000000 Uiso  0.3650
 Li1_B2_n6 Li+    0.000000    0.000000    0.010662    2.000000 Uiso  1.0000
 Li2_B2_n6 Li+    0.500000    0.500000    0.010662    2.000000 Uiso  0.3650
 Li1_B2_n7 Li+    0.000000    0.000000    0.012662    2.000000 Uiso  1.0000
 Li2_B2_n7 Li+    0.500000    0.500000    0.012662    2.000000 Uiso  0.3650
 Li1_B2_n8 Li+    0.000000    0.000000    0.014662    2.000000 Uiso  1.0000
 Li2_B2_n8 Li+    0.500000    0.500000    0.014662    2.000000 Uiso  0.3650
 Li1_B2_n9 Li+    0.000000    0.000000    0.016662    2.000000 Uiso  1.0000
 Li2_B2_n9 Li+    0.500000    0.500000    0.016662    2.000000 Uiso  0.3650
 Li1_B2_n10 Li+    0.000000    0.000000    0.018662    2.000000 Uiso  1.0000
 Li2_B2_n10 Li+    0.500000    0.500000    0.018662    2.000000 Uiso  0.3650
 Li1_B2_n11 Li+    0.000000    0.000000    0.020662    2.000000 Uiso  1.0000
 Li2_B2_n11 Li+    0.500000    0.500000    0.020662    2.000000 Uiso  0.3650
 Li1_B2_n12 Li+    0.000000    0.000000    0.022662    2.000000 Uiso  1.0000
 Li2_B2_n12 Li+    0.500000    0.500000    0.022662    2.000000 Uiso  0.3650
 Li1_B2_n13 Li+    0.000000    0.000000    0.024662    2.000000 Uiso  1.0000
 Li2_B2_n13 Li+    0.500000    0.500000    0.024662    2.000000 Uiso  0.3650
 Li1_B2_n14 Li+    0.000000    0.000000    0.026662    2.000000 Uiso  1.0000
 Li2_B2_n14 Li+    0.500000    0.500000    0.026662    2.000000 Uiso  0.3650
 Li1_B2_n15 Li+    0.000000    0.000000    0.028662    2.000000 Uiso  1.0000
 Li2_B2_n15 Li+    0.500000    0.500000    0.028662    2.000000 Uiso  0.3650
 Li1_B2_n16 Li+    0.000000    0.000000    0.030662    2.000000 Uiso  1.0000
 Li2_B2_n16 Li+    0.500000    0.500000    0.030662    2.000000 Uiso  0.3650
 Li1_B2_n17 Li+    0.000000    0.000000    0.032662    2.000000 Uiso  1.0000
 Li2_B2_n17 Li+    0.500000    0.500000    0.032662    2.000000 Uiso  0.3650
 Li1_B2_n18 Li+    0.000000    0.000000    0.034662    2.000000 Uiso  1.0000
 Li2_B2_n18 Li+    0.500000    0.500000    0.034662    2.000000 Uiso  0.3650
 Li1_B2_n19 Li+    0.000000    0.000000    0.036662    2.000000 Uiso  1.0000
 Li2_B2_n19 Li+    0.500000    0.500000    0.036662    2.000000 Uiso  0.3650
 Li1_B2_n20 Li+    0.000000    0.000000    0.038662    2.000000 Uiso  1.0000
 Li2_B2_n20 Li+    0.500000    0.500000    0.038662    2.000000 Uiso  0.3650
 Li1_B2_n21 Li+    0.000000    0.000000    0.040662    2.000000 Uiso  1.0000
 Li2_B2_n21 Li+    0.500000    0.500000    0.040662    2.000000 Uiso  0.3650
 Li1_B2_n22 Li+    0.000000    0.000000    0.042662    2.000000 Uiso  1.0000
 Li2_B2_n22 Li+    0.500000    0.500000    0.042662    2.000000 Uiso  0.3650
 Li1_B2_n23 Li+    0.000000    0.000000    0.044662    2.000000 Uiso  1.0000
 Li2_B2_n23 Li+    0.500000    0.500000    0.044662    2.000000 Uiso  0.3650
 Li1_B2_n24 Li+    0.000000    0.000000    0.046662    2.000000 Uiso  1.0000
 Li2_B2_n24 Li+    0.500000    0.500000    0.046662    2.000000 Uiso  0.3650
 Li1_B2_n25 Li+    0.000000    0.000000    0.048662    2.000000 Uiso  1.0000
 Li2_B2_n25 Li+    0.500000    0.500000    0.048662    2.000000 Uiso  0.3650
 Li1_B2_n26 Li+    0.000000    0.000000    0.050662    2.000000 Uiso  1.0000
 Li2_B2_n26 Li+    0.500000    0.500000    0.050662    2.000000 Uiso  0.3650
 Li1_B2_n27 Li+    0.000000    0.000000    0.052662    2.000000 Uiso  1.0000
 Li2_B2_n27 Li+    0.500000    0.500000    0.052662    2.000000 Uiso  0.3650
 Li1_B2_n28 Li+    0.000000    0.000000    0.054662    2.000000 Uiso  1.0000
 Li2_B2_n28 Li+    0.500000    0.500000    0.054662    2.000000 Uiso  0.3650
 Li1_B2_n29 Li+    0.000000    0.000000    0.056662    2.000000 Uiso  1.0000
 Li2_B2_n29 Li+    0.500000    0.500000    0.056662    2.000000 Uiso  0.3650
 Li1_B2_n30 Li+    0.000000    0.000000    0.058662    2.000000 Uiso  1.0000
 Li2_B2_n30 Li+    0.500000    0.500000    0.058662    2.000000 Uiso  0.3650
 Li1_B2_n31 Li+    0.000000    0.000000    0.060662    2.000000 Uiso  1.0000
 Li2_B2_n31 Li+    0.500000    0.500000    0.060662    2.000000 Uiso  0.3650
 Li1_B2_n32 Li+    0.000000    0.000000    0.062662    2.000000 Uiso  1.0000
 Li2_B2_n32 Li+    0.500000    0.500000    0.062662    2.000000 Uiso  0.3650
 Li1_B2_n33 Li+    0.000000    0.000000    0.064662    2.000000 Uiso  1.0000
 Li2_B2_n33 Li+    0.500000    0.500000    0.064662    2.000000 Uiso  0.3650
 Li1_B2_n34 Li+    0.000000    0.000000    0.066662    2.000000 Uiso  1.0000
 Li2_B2_n34 Li+    0.500000    0.500000    0.066662    2.000000 Uiso  0.3650
 Li1_B2_n35 Li+    0.000000    0.000000    0.068662    2.000000 Uiso  1.0000
 Li2_B2_n35 Li+    0.500000    0.500000    0.068662    2.000000 Uiso  0.3650
 Li1_B2_n36 Li+    0.000000    0.000000    0.070662    2.000000 Uiso  1.0000
 Li2_B2_n36 Li+    0.500000    0.500000    0.070662    2.000000 Uiso  0.3650
 Li1_B2_n37 Li+    0.000000    0.000000    0.072662    2.000000 Uiso  1.0000
 Li2_B2_n37 Li+    0.500000    0.500000    0.072662    2.000000 Uiso  0.3650
 Li1_B2_n38 Li+    0.000000    0.000000    0.074662    2.000000 Uiso  1.0000
 Li2_B2_n38 Li+    0.500000    0.500000    0.074662    2.000000 Uiso  0.3650
 Li1_B2_n39 Li+    0.000000    0.000000    0.076662    2.000000 Uiso  1.0000
 Li2_B2_n39 Li+    0.500000    0.500000    0.076662    2.000000 Uiso  0.3650
 Li1_B2_n40 Li+    0.000000    0.000000    0.078662    2.000000 Uiso  1.0000
 Li2_B2_n40 Li+    0.500000    0.500000    0.078662    2.000000 Uiso  0.3650
 Li1_B2_n41 Li+    0.000000    0.000000    0.080662    2.000000 Uiso  1.0000
 Li2_B2_n41 Li+    0.500000    0.500000    0.080662    2.000000 Uiso  0.3650
 Li1_B2_n42 Li+    0.000000    0.000000    0.082662    2.000000 Uiso  1.0000
 Li2_B2_n42 Li+    0.500000    0.500000    0.082662    2.000000 Uiso  0.3650
 Li1_B2_n43 Li+    0.000000    0.000000    0.084662    2.000000 Uiso  1.0000
 Li2_B2_n43 Li+    0.500000    0.500000    0.084662    2.000000 Uiso  0.3650
 Li1_B2_n44 Li+    0.000000    0.000000    0.086662    2.000000 Uiso  1.0000
 Li2_B2_n44 Li+    0.500000    0.500000    0.086662    2.000000 Uiso  0.3650
 Li1_B2_n45 Li+    0.000000    0.000000    0.088662    2.000000 Uiso  1.0000
 Li2_B2_n45 Li+    0.500000    0.500000    0.088662    2.000000 Uiso  0.3650
 Li1_B2_n46 Li+    0.000000    0.000000    0.090662    2.000000 Uiso  1.0000
 Li2_B2_n46 Li+    0.500000    0.500000    0.090662    2.000000 Uiso  0.3650
 Li1_B2_n47 Li+    0.000000    0.000000    0.092662    2.000000 Uiso  1.0000
 Li2_B2_n47 Li+    0.500000    0.500000    0.092662    2.000000 Uiso  0.3650
 Li1_B2_n48 Li+    0.000000    0.000000    0.094662    2.000000 Uiso  1.0000
 Li2_B2_n48 Li+    0.500000    0.500000    0.094662    2.000000 Uiso  0.3650
 Li1_B2_n49 Li+    0.000000    0.000000    0.096662    2.000000 Uiso  1.0000
 Li2_B2_n49 Li+    0.500000    0.500000    0.096662    2.000000 Uiso  0.3650
 Li1_B2_n50 Li+    0.000000    0.000000    0.098662    2.000000 Uiso  1.0000
 Li2_B2_n50 Li+    0.500000    0.500000    0.098662    2.000000 Uiso  0.3650
 Li1_B2_n51 Li+    0.000000    0.000000    0.100662    2.000000 Uiso  1.0000
 Li2_B2_n51 Li+    0.500000    0.500000    0.100662    2.000000 Uiso  0.3650
 Li1_B2_n52 Li+    0.000000    0.000000    0.102662    2.000000 Uiso  1.0000
 Li2_B2_n52 Li+    0.500000    0.500000    0.102662    2.000000 Uiso  0.3650
 Li1_B2_n53 Li+    0.000000    0.000000    0.104662    2.000000 Uiso  1.0000
 Li2_B2_n53 Li+    0.500000    0.500000    0.104662    2.000000 Uiso  0.3650
 Li1_B2_n54 Li+    0.000000    0.000000    0.106662    2.000000 Uiso  1.0000
 Li2_B2_n54 Li+    0.500000    0.500000    0.106662    2.000000 Uiso  0.3650
 Li1_B2_n55 Li+    0.000000    0.000000    0.108662    2.000000 Uiso  1.0000
 Li2_B2_n55 Li+    0.500000    0.500000    0.108662    2.000000 Uiso  0.3650
 Li1_B2_n56 Li+    0.000000    0.000000    0.110662    2.000000 Uiso  1.0000
 Li2_B2_n56 Li+    0.500000    0.500000    0.110662    2.000000 Uiso  0.3650
 Li1_B2_n57 Li+    0.000000    0.000000    0.112662    2.000000 Uiso  1.0000
 Li2_B2_n57 Li+    0.500000    0.500000    0.112662    2.000000 Uiso  0.3650
 Li1_B2_n58 Li+    0.000000    0.000000    0.114662    2.000000 Uiso  1.0000
 Li2_B2_n58 Li+    0.500000    0.500000    0.114662    2.000000 Uiso  0.3650
 Li1_B2_n59 Li+    0.000000    0.000000    0.116662    2.000000 Uiso  1.0000
 Li2_B2_n59 Li+    0.500000    0.500000    0.116662    2.000000 Uiso  0.3650
 Li1_B2_n60 Li+    0.000000    0.000000    0.118662    2.000000 Uiso  1.0000
 Li2_B2_n60 Li+    0.500000    0.500000    0.118662    2.000000 Uiso  0.3650
 Li1_B2_n61 Li+    0.000000    0.000000    0.120662    2.000000 Uiso  1.0000
 Li2_B2_n61 Li+    0.500000    0.500000    0.120662    2.000000 Uiso  0.3650
 Li1_B2_n62 Li+    0.000000    0.000000    0.122662    2.000000 Uiso  1.0000
 Li2_B2_n62 Li+    0.500000    0.500000    0.122662    2.000000 Uiso  0.3650
 Li1_B2_n63 Li+    0.000000    0.000000    0.124662    2.000000 Uiso  1.0000
 Li2_B2_n63 Li+    0.500000    0.500000    0.124662    2.000000 Uiso  0.3650
 Li1_B2_n64 Li+    0.000000    0.000000    0.126662    2.000000 Uiso  1.0000
 Li2_B2_n64 Li+    0.500000    0.500000    0.126662    2.000000 Uiso  0.3650
 Li1_B2_n65 Li+    0.000000    0.000000    0.128662    2.000000 Uiso  1.0000
 Li2_B2_n65 Li+    0.500000    0.500000    0.128662    2.000000 Uiso  0.3650
 Li1_B2_n66 Li+    0.000000    0.000000    0.130662    2.000000 Uiso  1.0000
 Li2_B2_n66 Li+    0.500000    0.500000    0.130662    2.000000 Uiso  0.3650
 Li1_B2_n67 Li+    0.000000    0.000000    0.132662    2.000000 Uiso  1.0000
 Li2_B2_n67 Li+    0.500000    0.500000    0.132662    2.000000 Uiso  0.3650
 Li1_B2_n68 Li+    0.000000    0.000000    0.134662    2.000000 Uiso  1.0000
 Li2_B2_n68 Li+    0.500000    0.500000    0.134662    2.000000 Uiso  0.3650
 Li1_B2_n69 Li+    0.000000    0.000000    0.136662    2.000000 Uiso  1.0000
 Li2_B2_n69 Li+    0.500000    0.500000    0.136662    2.000000 Uiso  0.3650
 Li1_B2_n70 Li+    0.000000    0.000000    0.138662    2.000000 Uiso  1.0000
 Li2_B2_n70 Li+    0.500000    0.500000    0.138662    2.000000 Uiso  0.3650
 Li1_B2_n71 Li+    0.000000    0.000000    0.140662    2.000000 Uiso  1.0000
 Li2_B2_n71 Li+    0.500000    0.500000    0.140662    2.000000 Uiso  0.3650
 Li1_B2_n72 Li+    0.000000    0.000000    0.142662    2.000000 Uiso  1.0000
 Li2_B2_n72 Li+    0.500000    0.500000    0.142662    2.000000 Uiso  0.3650
 Li1_B2_n73 Li+    0.000000    0.000000    0.144662    2.000000 Uiso  1.0000
 Li2_B2_n73 Li+    0.500000    0.500000    0.144662    2.000000 Uiso  0.3650
 Li1_B2_n74 Li+    0.000000    0.000000    0.146662    2.000000 Uiso  1.0000
 Li2_B2_n74 Li+    0.500000    0.500000    0.146662    2.000000 Uiso  0.3650
 Li1_B2_n75 Li+    0.000000    0.000000    0.148662    2.000000 Uiso  1.0000
 Li2_B2_n75 Li+    0.500000    0.500000    0.148662    2.000000 Uiso  0.3650
 Li1_B2_n76 Li+    0.000000    0.000000    0.150662    2.000000 Uiso  1.0000
 Li2_B2_n76 Li+    0.500000    0.500000    0.150662    2.000000 Uiso  0.3650
 Li1_B2_n77 Li+    0.000000    0.000000    0.152662    2.000000 Uiso  1.0000
 Li2_B2_n77 Li+    0.500000    0.500000    0.152662    2.000000 Uiso  0.3650
 Li1_B2_n78 Li+    0.000000    0.000000    0.154662    2.000000 Uiso  1.0000
 Li2_B2_n78 Li+    0.500000    0.500000    0.154662    2.000000 Uiso  0.3650
 Li1_B2_n79 Li+    0.000000    0.000000    0.156662    2.000000 Uiso  1.0000
 Li2_B2_n79 Li+    0.500000    0.500000    0.156662    2.000000 Uiso  0.3650
 Li1_B2_n80 Li+    0.000000    0.000000    0.158662    2.000000 Uiso  1.0000
 Li2_B2_n80 Li+    0.500000    0.500000    0.158662    2.000000 Uiso  0.3650
 Li1_B2_n81 Li+    0.000000    0.000000    0.160662    2.000000 Uiso  1.0000
 Li2_B2_n81 Li+    0.500000    0.500000    0.160662    2.000000 Uiso  0.3650
 Li1_B2_n82 Li+    0.000000    0.000000    0.162662    2.000000 Uiso  1.0000
 Li2_B2_n82 Li+    0.500000    0.500000    0.162662    2.000000 Uiso  0.3650
 Li1_B2_n83 Li+    0.000000    0.000000    0.164662    2.000000 Uiso  1.0000
 Li2_B2_n83 Li+    0.500000    0.500000    0.164662    2.000000 Uiso  0.3650
 Li1_B2_n84 Li+    0.000000    0.000000    0.166662    2.000000 Uiso  1.0000
 Li2_B2_n84 Li+    0.500000    0.500000    0.166662    2.000000 Uiso  0.3650
 Li1_B2_n85 Li+    0.000000    0.000000    0.168662    2.000000 Uiso  1.0000
 Li2_B2_n85 Li+    0.500000    0.500000    0.168662    2.000000 Uiso  0.3650
 Li1_B2_n86 Li+    0.000000    0.000000    0.170662    2.000000 Uiso  1.0000
 Li2_B2_n86 Li+    0.500000    0.500000    0.170662    2.000000 Uiso  0.3650
 Li1_B2_n87 Li+    0.000000    0.000000    0.172662    2.000000 Uiso  1.0000
 Li2_B2_n87 Li+    0.500000    0.500000    0.172662    2.000000 Uiso  0.3650
 Li1_B2_n88 Li+    0.000000    0.000000    0.174662    2.000000 Uiso  1.0000
 Li2_B2_n88 Li+    0.500000    0.500000    0.174662    2.000000 Uiso  0.3650
 Li1_B2_n89 Li+    0.000000    0.000000    0.176662    2.000000 Uiso  1.0000
 Li2_B2_n89 Li+    0.500000    0.500000    0.176662    2.000000 Uiso  0.3650
 Li1_B2_n90 Li+    0.000000    0.000000    0.178662    2.000000 Uiso  1.0000
 Li2_B2_n90 Li+    0.500000    0.500000    0.178662    2.000000 Uiso  0.3650
 Li1_B2_n91 Li+    0.000000    0.000000    0.180662    2.000000 Uiso  1.0000
 Li2_B2_n91 Li+    0.500000    0.500000    0.180662    2.000000 Uiso  0.3650
 Li1_B2_n92 Li+    0.000000    0.000000    0.182662    2.000000 Uiso  1.0000
 Li2_B2_n92 Li+    0.500000    0.500000    0.182662    2.000000 Uiso  0.3650
 Li1_B2_n93 Li+    0.000000    0.000000    0.184662    2.000000 Uiso  1.0000
 Li2_B2_n93 Li+    0.500000    0.500000    0.184662    2.000000 Uiso  0.3650
 Li1_B2_n94 Li+    0.000000    0.000000    0.186662    2.000000 Uiso  1.0000
 Li2_B2_n94 Li+    0.500000    0.500000    0.186662    2.000000 Uiso  0.3650
 Li1_B2_n95 Li+    0.000000    0.000000    0.188662    2.000000 Uiso  1.0000
 Li2_B2_n95 Li+    0.500000    0.500000    0.188662    2.000000 Uiso  0.3650
 Li1_B2_n96 Li+    0.000000    0.000000    0.190662    2.000000 Uiso  1.0000
 Li2_B2_n96 Li+    0.500000    0.500000    0.190662    2.000000 Uiso  0.3650
 Li1_B2_n97 Li+    0.000000    0.000000    0.192662    2.000000 Uiso  1.0000
 Li2_B2_n97 Li+    0.500000    0.500000    0.192662    2.000000 Uiso  0.3650
 Li1_B2_n98 Li+    0.000000    0.000000    0.194662    2.000000 Uiso  1.0000
 Li2_B2_n98 Li+    0.500000    0.500000    0.194662    2.000000 Uiso  0.3650
 Li1_B2_n99 Li+    0.000000    0.000000    0.196662    2.000000 Uiso  1.0000
 Li2_B2_n99 Li+    0.500000    0.500000    0.196662    2.000000 Uiso  0.3650
 Li1_B2_n100 Li+    0.000000    0.000000    0.198662    2.000000 Uiso  1.0000
 Li2_B2_n100 Li+    0.500000    0.500000    0.198662    2.000000 Uiso  0.3650
 Li1_B2_n101 Li+    0.000000    0.000000    0.200662    2.000000 Uiso  1.0000
 Li2_B2_n101 Li+    0.500000    0.500000    0.200662    2.000000 Uiso  0.3650
 Li1_B2_n102 Li+    0.000000    0.000000    0.202662    2.000000 Uiso  1.0000
 Li2_B2_n102 Li+    0.500000    0.500000    0.202662    2.000000 Uiso  0.3650
 Li1_B2_n103 Li+    0.000000    0.000000    0.204662    2.000000 Uiso  1.0000
 Li2_B2_n103 Li+    0.500000    0.500000    0.204662    2.000000 Uiso  0.3650
 Li1_B2_n104 Li+    0.000000    0.000000    0.206662    2.000000 Uiso  1.0000
 Li2_B2_n104 Li+    0.500000    0.500000    0.206662    2.000000 Uiso  0.3650
 Li1_B2_n105 Li+    0.000000    0.000000    0.208662    2.000000 Uiso  1.0000
 Li2_B2_n105 Li+    0.500000    0.500000    0.208662    2.000000 Uiso  0.3650
 Li1_B2_n106 Li+    0.000000    0.000000    0.210662    2.000000 Uiso  1.0000
 Li2_B2_n106 Li+    0.500000    0.500000    0.210662    2.000000 Uiso  0.3650
 Li1_B2_n107 Li+    0.000000    0.000000    0.212662    2.000000 Uiso  1.0000
 Li2_B2_n107 Li+    0.500000    0.500000    0.212662    2.000000 Uiso  0.3650
 Li1_B2_n108 Li+    0.000000    0.000000    0.214662    2.000000 Uiso  1.0000
 Li2_B2_n108 Li+    0.500000    0.500000    0.214662    2.000000 Uiso  0.3650
 Li1_B2_n109 Li+    0.000000    0.000000    0.216662    2.000000 Uiso  1.0000
 Li2_B2_n109 Li+    0.500000    0.500000    0.216662    2.000000 Uiso  0.3650
 Li1_B2_n110 Li+    0.000000    0.000000    0.218662    2.000000 Uiso  1.0000
 Li2_B2_n110 Li+    0.500000    0.500000    0.218662    2.000000 Uiso  0.3650
 Li1_B2_n111 Li+    0.000000    0.000000    0.220662    2.000000 Uiso  1.0000
 Li2_B2_n111 Li+    0.500000    0.500000    0.220662    2.000000 Uiso  0.3650
 Li1_B2_n112 Li+    0.000000    0.000000    0.222662    2.000000 Uiso  1.0000
 Li2_B2_n112 Li+    0.500000    0.500000    0.222662    2.000000 Uiso  0.3650
 Li1_B2_n113 Li+    0.000000    0.000000    0.224662    2.000000 Uiso  1.0000
 Li2_B2_n113 Li+    0.500000    0.500000    0.224662    2.000000 Uiso  0.3650
 Li1_B2_n114 Li+    0.000000    0.000000    0.226662    2.000000 Uiso  1.0000
 Li2_B2_n114 Li+    0.500000    0.500000    0.226662    2.000000 Uiso  0.3650
 Li1_B2_n115 Li+    0.000000    0.000000    0.228662    2.000000 Uiso  1.0000
 Li2_B2_n115 Li+    0.500000    0.500000    0.228662    2.000000 Uiso  0.3650
 Li1_B2_n116 Li+    0.000000    0.000000    0.230662    2.000000 Uiso  1.0000
 Li2_B2_n116 Li+    0.500000    0.500000    0.230662    2.000000 Uiso  0.3650
 Li1_B2_n117 Li+    0.000000    0.000000    0.232662    2.000000 Uiso  1.0000
 Li2_B2_n117 Li+    0.500000    0.500000    0.232662    2.000000 Uiso  0.3650
 Li1_B2_n118 Li+    0.000000    0.000000    0.234662    2.000000 Uiso  1.0000
 Li2_B2_n118 Li+    0.500000    0.500000    0.234662    2.000000 Uiso  0.3650
 Li1_B2_n119 Li+    0.000000    0.000000    0.236662    2.000000 Uiso  1.0000
 Li2_B2_n119 Li+    0.500000    0.500000    0.236662    2.000000 Uiso  0.3650
 Li1_B2_n120 Li+    0.000000    0.000000    0.238662    2.000000 Uiso  1.0000
 Li2_B2_n120 Li+    0.500000    0.500000    0.238662    2.000000 Uiso  0.3650
 Li1_B2_n121 Li+    0.000000    0.000000    0.240662    2.000000 Uiso  1.0000
 Li2_B2_n121 Li+    0.500000    0.500000    0.240662    2.000000 Uiso  0.3650
 Li1_B2_n122 Li+    0.000000    0.000000    0.242662    2.000000 Uiso  1.0000
 Li2_B2_n122 Li+    0.500000    0.500000    0.242662    2.000000 Uiso  0.3650
 Li1_B2_n123 Li+    0.000000    0.000000    0.244662    2.000000 Uiso  1.0000
 Li2_B2_n123 Li+    0.500000    0.500000    0.244662    2.000000 Uiso  0.3650
 Li1_B2_n124 Li+    0.000000    0.000000    0.246662    2.000000 Uiso  1.0000
 Li2_B2_n124 Li+    0.500000    0.500000    0.246662    2.000000 Uiso  0.3650
 Li1_B2_n125 Li+    0.000000    0.000000    0.248662    2.000000 Uiso  1.0000
 Li2_B2_n125 Li+    0.500000    0.500000    0.248662    2.000000 Uiso  0.3650
 Li1_B2_n126 Li+    0.000000    0.000000    0.250662    2.000000 Uiso  1.0000
 Li2_B2_n126 Li+    0.500000    0.500000    0.250662    2.000000 Uiso  0.3650
 Li1_B2_n127 Li+    0.000000    0.000000    0.252662    2.000000 Uiso  1.0000
 Li2_B2_n127 Li+    0.500000    0.500000    0.252662    2.000000 Uiso  0.3650
 Li1_B2_n128 Li+    0.000000    0.000000    0.254662    2.000000 Uiso  1.0000
 Li2_B2_n128 Li+    0.500000    0.500000    0.254662    2.000000 Uiso  0.3650
 Li1_B2_n129 Li+    0.000000    0.000000    0.256662    2.000000 Uiso  1.0000
 Li2_B2_n129 Li+    0.500000    0.500000    0.256662    2.000000 Uiso  0.3650
 Li1_B2_n130 Li+    0.000000    0.000000    0.258662    2.000000 Uiso  1.0000
 Li2_B2_n130 Li+    0.500000    0.500000    0.258662    2.000000 Uiso  0.3650
 Li1_B2_n131 Li+    0.000000    0.000000    0.260662    2.000000 Uiso  1.0000
 Li2_B2_n131 Li+    0.500000    0.500000    0.260662    2.000000 Uiso  0.3650
 Li1_B2_n132 Li+    0.000000    0.000000    0.262662    2.000000 Uiso  1.0000
 Li2_B2_n132 Li+    0.500000    0.500000    0.262662    2.000000 Uiso  0.3650
 Li1_B2_n133 Li+    0.000000    0.000000    0.264662    2.000000 Uiso  1.0000
 Li2_B2_n133 Li+    0.500000    0.500000    0.264662    2.000000 Uiso  0.3650
 Li1_B2_n134 Li+    0.000000    0.000000    0.266662    2.000000 Uiso  1.0000
 Li2_B2_n134 Li+    0.500000    0.500000    0.266662    2.000000 Uiso  0.3650
 Li1_B2_n135 Li+    0.000000    0.000000    0.268662    2.000000 Uiso  1.0000
 Li2_B2_n135 Li+    0.500000    0.500000    0.268662    2.000000 Uiso  0.3650
 Li1_B2_n136 Li+    0.000000    0.000000    0.270662    2.000000 Uiso  1.0000
 Li2_B2_n136 Li+    0.500000    0.500000    0.270662    2.000000 Uiso  0.3650
 Li1_B2_n137 Li+    0.000000    0.000000    0.272662    2.000000 Uiso  1.0000
 Li2_B2_n137 Li+    0.500000    0.500000    0.272662    2.000000 Uiso  0.3650
 Li1_B2_n138 Li+    0.000000    0.000000    0.274662    2.000000 Uiso  1.0000
 Li2_B2_n138 Li+    0.500000    0.500000    0.274662    2.000000 Uiso  0.3650
 Li1_B2_n139 Li+    0.000000    0.000000    0.276662    2.000000 Uiso  1.0000
 Li2_B2_n139 Li+    0.500000    0.500000    0.276662    2.000000 Uiso  0.3650
 Li1_B2_n140 Li+    0.000000    0.000000    0.278662    2.000000 Uiso  1.0000
 Li2_B2_n140 Li+    0.500000    0.500000    0.278662    2.000000 Uiso  0.3650
 Li1_B2_n141 Li+    0.000000    0.000000    0.280662    2.000000 Uiso  1.0000
 Li2_B2_n141 Li+    0.500000    0.500000    0.280662    2.000000 Uiso  0.3650
 Li1_B2_n142 Li+    0.000000    0.000000    0.282662    2.000000 Uiso  1.0000
 Li2_B2_n142 Li+    0.500000    0.500000    0.282662    2.000000 Uiso  0.3650
 Li1_B2_n143 Li+    0.000000    0.000000    0.284662    2.000000 Uiso  1.0000
 Li2_B2_n143 Li+    0.500000    0.500000    0.284662    2.000000 Uiso  0.3650
 Li1_B2_n144 Li+    0.000000    0.000000    0.286662    2.000000 Uiso  1.0000
 Li2_B2_n144 Li+    0.500000    0.500000    0.286662    2.000000 Uiso  0.3650
 Li1_B2_n145 Li+    0.000000    0.000000    0.288662    2.000000 Uiso  1.0000
 Li2_B2_n145 Li+    0.500000    0.500000    0.288662    2.000000 Uiso  0.3650
 Li1_B2_n146 Li+    0.000000    0.000000    0.290662    2.000000 Uiso  1.0000
 Li2_B2_n146 Li+    0.500000    0.500000    0.290662    2.000000 Uiso  0.3650
 Li1_B2_n147 Li+    0.000000    0.000000    0.292662    2.000000 Uiso  1.0000
 Li2_B2_n147 Li+    0.500000    0.500000    0.292662    2.000000 Uiso  0.3650
 Li1_B2_n148 Li+    0.000000    0.000000    0.294662    2.000000 Uiso  1.0000
 Li2_B2_n148 Li+    0.500000    0.500000    0.294662    2.000000 Uiso  0.3650
 Li1_B2_n149 Li+    0.000000    0.000000    0.296662    2.000000 Uiso  1.0000
 Li2_B2_n149 Li+    0.500000    0.500000    0.296662    2.000000 Uiso  0.3650
 Li1_B2_n150 Li+    0.000000    0.000000    0.298662    2.000000 Uiso  1.0000
 Li2_B2_n150 Li+    0.500000    0.500000    0.298662    2.000000 Uiso  0.3650
 Li1_B2_n151 Li+    0.000000    0.000000    0.300662    2.000000 Uiso  1.0000
 Li2_B2_n151 Li+    0.500000    0.500000    0.300662    2.000000 Uiso  0.3650
 Li1_B2_n152 Li+    0.000000    0.000000    0.302662    2.000000 Uiso  1.0000
 Li2_B2_n152 Li+    0.500000    0.500000    0.302662    2.000000 Uiso  0.3650
 Li1_B2_n153 Li+    0.000000    0.000000    0.304662    2.000000 Uiso  1.0000
 Li2_B2_n153 Li+    0.500000    0.500000    0.304662    2.000000 Uiso  0.3650
 Li1_B2_n154 Li+    0.000000    0.000000    0.306662    2.000000 Uiso  1.0000
 Li2_B2_n154 Li+    0.500000    0.500000    0.306662    2.000000 Uiso  0.3650
 Li1_B2_n155 Li+    0.000000    0.000000    0.308662    2.000000 Uiso  1.0000
 Li2_B2_n155 Li+    0.500000    0.500000    0.308662    2.000000 Uiso  0.3650
 Li1_B2_n156 Li+    0.000000    0.000000    0.310662    2.000000 Uiso  1.0000
 Li2_B2_n156 Li+    0.500000    0.500000    0.310662    2.000000 Uiso  0.3650
 Li1_B2_n157 Li+    0.000000    0.000000    0.312662    2.000000 Uiso  1.0000
 Li2_B2_n157 Li+    0.500000    0.500000    0.312662    2.000000 Uiso  0.3650
 Li1_B2_n158 Li+    0.000000    0.000000    0.314662    2.000000 Uiso  1.0000
 Li2_B2_n158 Li+    0.500000    0.500000    0.314662    2.000000 Uiso  0.3650
 Li1_B2_n159 Li+    0.000000    0.000000    0.316662    2.000000 Uiso  1.0000
 Li2_B2_n159 Li+    0.500000    0.500000    0.316662    2.000000 Uiso  0.3650
 Li1_B2_n160 Li+    0.000000    0.000000    0.318662    2.000000 Uiso  1.0000
 Li2_B2_n160 Li+    0.500000    0.500000    0.318662    2.000000 Uiso  0.3650
 Li1_B2_n161 Li+    0.000000    0.000000    0.320662    2.000000 Uiso  1.0000
 Li2_B2_n161 Li+    0.500000    0.500000    0.320662    2.000000 Uiso  0.3650
 Li1_B2_n162 Li+    0.000000    0.000000    0.322662    2.000000 Uiso  1.0000
 Li2_B2_n162 Li+    0.500000    0.500000    0.322662    2.000000 Uiso  0.3650
 Li1_B2_n163 Li+    0.000000    0.000000    0.324662    2.000000 Uiso  1.0000
 Li2_B2_n163 Li+    0.500000    0.500000    0.324662    2.000000 Uiso  0.3650
 Li1_B2_n164 Li+    0.000000    0.000000    0.326662    2.000000 Uiso  1.0000
 Li2_B2_n164 Li+    0.500000    0.500000    0.326662    2.000000 Uiso  0.3650
 Li1_B2_n165 Li+    0.000000    0.000000    0.328662    2.000000 Uiso  1.0000
 Li2_B2_n165 Li+    0.500000    0.500000    0.328662    2.000000 Uiso  0.3650
 Li1_B2_n166 Li+    0.000000    0.000000    0.330662    2.000000 Uiso  1.0000
 Li2_B2_n166 Li+    0.500000    0.500000    0.330662    2.000000 Uiso  0.3650
 Li1_B2_n167 Li+    0.000000    0.000000    0.332662    2.000000 Uiso  1.0000
 Li2_B2_n167 Li+    0.500000    0.500000    0.332662    2.000000 Uiso  0.3650
 Li1_B2_n168 Li+    0.000000    0.000000    0.334662    2.000000 Uiso  1.0000
 Li2_B2_n168 Li+    0.500000    0.500000    0.334662    2.000000 Uiso  0.3650
 Li1_B2_n169 Li+    0.000000    0.000000    0.336662    2.000000 Uiso  1.0000
 Li2_B2_n169 Li+    0.500000    0.500000    0.336662    2.000000 Uiso  0.3650
 Li1_B2_n170 Li+    0.000000    0.000000    0.338662    2.000000 Uiso  1.0000
 Li2_B2_n170 Li+    0.500000    0.500000    0.338662    2.000000 Uiso  0.3650
 Li1_B2_n171 Li+    0.000000    0.000000    0.340662    2.000000 Uiso  1.0000
 Li2_B2_n171 Li+    0.500000    0.500000    0.340662    2.000000 Uiso  0.3650
 Li1_B2_n172 Li+    0.000000    0.000000    0.342662    2.000000 Uiso  1.0000
 Li2_B2_n172 Li+    0.500000    0.500000    0.342662    2.000000 Uiso  0.3650
 Li1_B2_n173 Li+    0.000000    0.000000    0.344662    2.000000 Uiso  1.0000
 Li2_B2_n173 Li+    0.500000    0.500000    0.344662    2.000000 Uiso  0.3650
 Li1_B2_n174 Li+    0.000000    0.000000    0.346662    2.000000 Uiso  1.0000
 Li2_B2_n174 Li+    0.500000    0.500000    0.346662    2.000000 Uiso  0.3650
 Li1_B2_n175 Li+    0.000000    0.000000    0.348662    2.000000 Uiso  1.0000
 Li2_B2_n175 Li+    0.500000    0.500000    0.348662    2.000000 Uiso  0.3650
 Li1_B2_n176 Li+    0.000000    0.000000    0.350662    2.000000 Uiso  1.0000
 Li2_B2_n176 Li+    0.500000    0.500000    0.350662    2.000000 Uiso  0.3650
 Li1_B2_n177 Li+    0.000000    0.000000    0.352662    2.000000 Uiso  1.0000
 Li2_B2_n177 Li+    0.500000    0.500000    0.352662    2.000000 Uiso  0.3650
 Li1_B2_n178 Li+    0.000000    0.000000    0.354662    2.000000 Uiso  1.0000
 Li2_B2_n178 Li+    0.500000    0.500000    0.354662    2.000000 Uiso  0.3650
 Li1_B2_n179 Li+    0.000000    0.000000    0.356662    2.000000 Uiso  1.0000
 Li2_B2_n179 Li+    0.500000    0.500000    0.356662    2.000000 Uiso  0.3650
 Li1_B2_n180 Li+    0.000000    0.000000    0.358662    2.000000 Uiso  1.0000
 Li2_B2_n180 Li+    0.500000    0.500000    0.358662    2.000000 Uiso  0.3650
 Li1_B2_n181 Li+    0.000000    0.000000    0.360662    2.000000 Uiso  1.0000
 Li2_B2_n181 Li+    0.500000    0.500000    0.360662    2.000000 Uiso  0.3650
 Li1_B2_n182 Li+    0.000000    0.000000    0.362662    2.000000 Uiso  1.0000
 Li2_B2_n182 Li+    0.500000    0.500000    0.362662    2.000000 Uiso  0.3650
 Li1_B2_n183 Li+    0.000000    0.000000    0.364662    2.000000 Uiso  1.0000
 Li2_B2_n183 Li+    0.500000    0.500000    0.364662    2.000000 Uiso  0.3650
 Li1_B2_n184 Li+    0.000000    0.000000    0.366662    2.000000 Uiso  1.0000
 Li2_B2_n184 Li+    0.500000    0.500000    0.366662    2.000000 Uiso  0.3650
 Li1_B2_n185 Li+    0.000000    0.000000    0.368662    2.000000 Uiso  1.0000
 Li2_B2_n185 Li+    0.500000    0.500000    0.368662    2.000000 Uiso  0.3650
 Li1_B2_n186 Li+    0.000000    0.000000    0.370662    2.000000 Uiso  1.0000
 Li2_B2_n186 Li+    0.500000    0.500000    0.370662    2.000000 Uiso  0.3650
 Li1_B2_n187 Li+    0.000000    0.000000    0.372662    2.000000 Uiso  1.0000
 Li2_B2_n187 Li+    0.500000    0.500000    0.372662    2.000000 Uiso  0.3650
 Li1_B2_n188 Li+    0.000000    0.000000    0.374662    2.000000 Uiso  1.0000
 Li2_B2_n188 Li+    0.500000    0.500000    0.374662    2.000000 Uiso  0.3650
 Li1_B2_n189 Li+    0.000000    0.000000    0.376662    2.000000 Uiso  1.0000
 Li2_B2_n189 Li+    0.500000    0.500000    0.376662    2.000000 Uiso  0.3650
 Li1_B2_n190 Li+    0.000000    0.000000    0.378662    2.000000 Uiso  1.0000
 Li2_B2_n190 Li+    0.500000    0.500000    0.378662    2.000000 Uiso  0.3650
 Li1_B2_n191 Li+    0.000000    0.000000    0.380662    2.000000 Uiso  1.0000
 Li2_B2_n191 Li+    0.500000    0.500000    0.380662    2.000000 Uiso  0.3650
 Li1_B2_n192 Li+    0.000000    0.000000    0.382662    2.000000 Uiso  1.0000
 Li2_B2_n192 Li+    0.500000    0.500000    0.382662    2.000000 Uiso  0.3650
 Li1_B2_n193 Li+    0.000000    0.000000    0.384662    2.000000 Uiso  1.0000
 Li2_B2_n193 Li+    0.500000    0.500000    0.384662    2.000000 Uiso  0.3650
 Li1_B2_n194 Li+    0.000000    0.000000    0.386662    2.000000 Uiso  1.0000
 Li2_B2_n194 Li+    0.500000    0.500000    0.386662    2.000000 Uiso  0.3650
 Li1_B2_n195 Li+    0.000000    0.000000    0.388662    2.000000 Uiso  1.0000
 Li2_B2_n195 Li+    0.500000    0.500000    0.388662    2.000000 Uiso  0.3650
 Li1_B2_n196 Li+    0.000000    0.000000    0.390662    2.000000 Uiso  1.0000
 Li2_B2_n196 Li+    0.500000    0.500000    0.390662    2.000000 Uiso  0.3650
 Li1_B2_n197 Li+    0.000000    0.000000    0.392662    2.000000 Uiso  1.0000
 Li2_B2_n197 Li+    0.500000    0.500000    0.392662    2.000000 Uiso  0.3650
 Li1_B2_n198 Li+    0.000000    0.000000    0.394662    2.000000 Uiso  1.0000
 Li2_B2_n198 Li+    0.500000    0.500000    0.394662    2.000000 Uiso  0.3650
 Li1_B2_n199 Li+    0.000000    0.000000    0.396662    2.000000 Uiso  1.0000
 Li2_B2_n199 Li+    0.500000    0.500000    0.396662    2.000000 Uiso  0.3650
 Li1_B2_n200 Li+    0.000000    0.000000    0.398662    2.000000 Uiso  1.0000
 Li2_B2_n200 Li+    0.500000    0.500000    0.398662    2.000000 Uiso  0.3650
 Li1_B2_n201 Li+    0.000000    0.000000    0.400662    2.000000 Uiso  1.0000
 Li2_B2_n201 Li+    0.500000    0.500000    0.400662    2.000000 Uiso  0.3650
 Li1_B2_n202 Li+    0.000000    0.000000    0.402662    2.000000 Uiso  1.0000
 Li2_B2_n202 Li+    0.500000    0.500000    0.402662    2.000000 Uiso  0.3650
 Li1_B2_n203 Li+    0.000000    0.000000    0.404662    2.000000 Uiso  1.0000
 Li2_B2_n203 Li+    0.500000    0.500000    0.404662    2.000000 Uiso  0.3650
 Li1_B2_n204 Li+    0.000000    0.000000    0.406662    2.000000 Uiso  1.0000
 Li2_B2_n204 Li+    0.500000    0.500000    0.406662    2.000000 Uiso  0.3650
 Li1_B2_n205 Li+    0.000000    0.000000    0.408662    2.000000 Uiso  1.0000
 Li2_B2_n205 Li+    0.500000    0.500000    0.408662    2.000000 Uiso  0.3650
 Li1_B2_n206 Li+    0.000000    0.000000    0.410662    2.000000 Uiso  1.0000
 Li2_B2_n206 Li+    0.500000    0.500000    0.410662    2.000000 Uiso  0.3650
 Li1_B2_n207 Li+    0.000000    0.000000    0.412662    2.000000 Uiso  1.0000
 Li2_B2_n207 Li+    0.500000    0.500000    0.412662    2.000000 Uiso  0.3650
 Li1_B2_n208 Li+    0.000000    0.000000    0.414662    2.000000 Uiso  1.0000
 Li2_B2_n208 Li+    0.500000    0.500000    0.414662    2.000000 Uiso  0.3650
 Li1_B2_n209 Li+    0.000000    0.000000    0.416662    2.000000 Uiso  1.0000
 Li2_B2_n209 Li+    0.500000    0.500000    0.416662    2.000000 Uiso  0.3650
 Li1_B2_n210 Li+    0.000000    0.000000    0.418662    2.000000 Uiso  1.0000
 Li2_B2_n210 Li+    0.500000    0.500000    0.418662    2.000000 Uiso  0.3650
 Li1_B2_n211 Li+    0.000000    0.000000    0.420662    2.000000 Uiso  1.0000
 Li2_B2_n211 Li+    0.500000    0.500000    0.420662    2.000000 Uiso  0.3650
 Li1_B2_n212 Li+    0.000000    0.000000    0.422662    2.000000 Uiso  1.0000
 Li2_B2_n212 Li+    0.500000    0.500000    0.422662    2.000000 Uiso  0.3650
 Li1_B2_n213 Li+    0.000000    0.000000    0.424662    2.000000 Uiso  1.0000
 Li2_B2_n213 Li+    0.500000    0.500000    0.424662    2.000000 Uiso  0.3650
 Li1_B2_n214 Li+    0.000000    0.000000    0.426662    2.000000 Uiso  1.0000
 Li2_B2_n214 Li+    0.500000    0.500000    0.426662    2.000000 Uiso  0.3650
 Li1_B2_n215 Li+    0.000000    0.000000    0.428662    2.000000 Uiso  1.0000
 Li2_B2_n215 Li+    0.500000    0.500000    0.428662    2.000000 Uiso  0.3650
 Li1_B2_n216 Li+    0.000000    0.000000    0.430662    2.000000 Uiso  1.0000
 Li2_B2_n216 Li+    0.500000    0.500000    0.430662    2.000000 Uiso  0.3650
 Li1_B2_n217 Li+    0.000000    0.000000    0.432662    2.000000 Uiso  1.0000
 Li2_B2_n217 Li+    0.500000    0.500000    0.432662    2.000000 Uiso  0.3650
 Li1_B2_n218 Li+    0.000000    0.000000    0.434662    2.000000 Uiso  1.0000
 Li2_B2_n218 Li+    0.500000    0.500000    0.434662    2.000000 Uiso  0.3650
 Li1_B2_n219 Li+    0.000000    0.000000    0.436662    2.000000 Uiso  1.0000
 Li2_B2_n219 Li+    0.500000    0.500000    0.436662    2.000000 Uiso  0.3650
 Li1_B2_n220 Li+    0.000000    0.000000    0.438662    2.000000 Uiso  1.0000
 Li2_B2_n220 Li+    0.500000    0.500000    0.438662    2.000000 Uiso  0.3650
 Li1_B2_n221 Li+    0.000000    0.000000    0.440662    2.000000 Uiso  1.0000
 Li2_B2_n221 Li+    0.500000    0.500000    0.440662    2.000000 Uiso  0.3650
 Li1_B2_n222 Li+    0.000000    0.000000    0.442662    2.000000 Uiso  1.0000
 Li2_B2_n222 Li+    0.500000    0.500000    0.442662    2.000000 Uiso  0.3650
 Li1_B2_n223 Li+    0.000000    0.000000    0.444662    2.000000 Uiso  1.0000
 Li2_B2_n223 Li+    0.500000    0.500000    0.444662    2.000000 Uiso  0.3650
 Li1_B2_n224 Li+    0.000000    0.000000    0.446662    2.000000 Uiso  1.0000
 Li2_B2_n224 Li+    0.500000    0.500000    0.446662    2.000000 Uiso  0.3650
 Li1_B2_n225 Li+    0.000000    0.000000    0.448662    2.000000 Uiso  1.0000
 Li2_B2_n225 Li+    0.500000    0.500000    0.448662    2.000000 Uiso  0.3650
 Li1_B2_n226 Li+    0.000000    0.000000    0.450662    2.000000 Uiso  1.0000
 Li2_B2_n226 Li+    0.500000    0.500000    0.450662    2.000000 Uiso  0.3650
 Li1_B2_n227 Li+    0.000000    0.000000    0.452662    2.000000 Uiso  1.0000
 Li2_B2_n227 Li+    0.500000    0.500000    0.452662    2.000000 Uiso  0.3650
 Li1_B2_n228 Li+    0.000000    0.000000    0.454662    2.000000 Uiso  1.0000
 Li2_B2_n228 Li+    0.500000    0.500000    0.454662    2.000000 Uiso  0.3650
 Li1_B2_n229 Li+    0.000000    0.000000    0.456662    2.000000 Uiso  1.0000
 Li2_B2_n229 Li+    0.500000    0.500000    0.456662    2.000000 Uiso  0.3650
 Li1_B2_n230 Li+    0.000000    0.000000    0.458662    2.000000 Uiso  1.0000
 Li2_B2_n230 Li+    0.500000    0.500000    0.458662    2.000000 Uiso  0.3650
 Li1_B2_n231 Li+    0.000000    0.000000    0.460662    2.000000 Uiso  1.0000
 Li2_B2_n231 Li+    0.500000    0.500000    0.460662    2.000000 Uiso  0.3650
 Li1_B2_n232 Li+    0.000000    0.000000    0.462662    2.000000 Uiso  1.0000
 Li2_B2_n232 Li+    0.500000    0.500000    0.462662    2.000000 Uiso  0.3650
 Li1_B2_n233 Li+    0.000000    0.000000    0.464662    2.000000 Uiso  1.0000
 Li2_B2_n233 Li+    0.500000    0.500000    0.464662    2.000000 Uiso  0.3650
 Li1_B2_n234 Li+    0.000000    0.000000    0.466662    2.000000 Uiso  1.0000
 Li2_B2_n234 Li+    0.500000    0.500000    0.466662    2.000000 Uiso  0.3650
 Li1_B2_n235 Li+    0.000000    0.000000    0.468662    2.000000 Uiso  1.0000
 Li2_B2_n235 Li+    0.500000    0.500000    0.468662    2.000000 Uiso  0.3650
 Li1_B2_n236 Li+    0.000000    0.000000    0.470662    2.000000 Uiso  1.0000
 Li2_B2_n236 Li+    0.500000    0.500000    0.470662    2.000000 Uiso  0.3650
 Li1_B2_n237 Li+    0.000000    0.000000    0.472662    2.000000 Uiso  1.0000
 Li2_B2_n237 Li+    0.500000    0.500000    0.472662    2.000000 Uiso  0.3650
 Li1_B2_n238 Li+    0.000000    0.000000    0.474662    2.000000 Uiso  1.0000
 Li2_B2_n238 Li+    0.500000    0.500000    0.474662    2.000000 Uiso  0.3650
 Li1_B2_n239 Li+    0.000000    0.000000    0.476662    2.000000 Uiso  1.0000
 Li2_B2_n239 Li+    0.500000    0.500000    0.476662    2.000000 Uiso  0.3650
 Li1_B2_n240 Li+    0.000000    0.000000    0.478662    2.000000 Uiso  1.0000
 Li2_B2_n240 Li+    0.500000    0.500000    0.478662    2.000000 Uiso  0.3650
 Li1_B2_n241 Li+    0.000000    0.000000    0.480662    2.000000 Uiso  1.0000
 Li2_B2_n241 Li+    0.500000    0.500000    0.480662    2.000000 Uiso  0.3650
 Li1_B2_n242 Li+    0.000000    0.000000    0.482662    2.000000 Uiso  1.0000
 Li2_B2_n242 Li+    0.500000    0.500000    0.482662    2.000000 Uiso  0.3650
 Li1_B2_n243 Li+    0.000000    0.000000    0.484662    2.000000 Uiso  1.0000
 Li2_B2_n243 Li+    0.500000    0.500000    0.484662    2.000000 Uiso  0.3650
 Li1_B2_n244 Li+    0.000000    0.000000    0.486662    2.000000 Uiso  1.0000
 Li2_B2_n244 Li+    0.500000    0.500000    0.486662    2.000000 Uiso  0.3650
 Li1_B2_n245 Li+    0.000000    0.000000    0.488662    2.000000 Uiso  1.0000
 Li2_B2_n245 Li+    0.500000    0.500000    0.488662    2.000000 Uiso  0.3650
 Li1_B2_n246 Li+    0.000000    0.000000    0.490662    2.000000 Uiso  1.0000
 Li2_B2_n246 Li+    0.500000    0.500000    0.490662    2.000000 Uiso  0.3650
 Li1_B2_n247 Li+    0.000000    0.000000    0.492662    2.000000 Uiso  1.0000
 Li2_B2_n247 Li+    0.500000    0.500000    0.492662    2.000000 Uiso  0.3650
 Li1_B2_n248 Li+    0.000000    0.000000    0.494662    2.000000 Uiso  1.0000
 Li2_B2_n248 Li+    0.500000    0.500000    0.494662    2.000000 Uiso  0.3650
 Li1_B2_n249 Li+    0.000000    0.000000    0.496662    2.000000 Uiso  1.0000
 Li2_B2_n249 Li+    0.500000    0.500000    0.496662    2.000000 Uiso  0.3650
 Li1_B2_n250 Li+    0.000000    0.000000    0.498662    2.000000 Uiso  1.0000
 Li2_B2_n250 Li+    0.500000    0.500000    0.498662    2.000000 Uiso  0.3650
 Li1_B2_n251 Li+    0.000000    0.000000    0.500662    2.000000 Uiso  1.0000
 Li2_B2_n251 Li+    0.500000    0.500000    0.500662    2.000000 Uiso  0.3650
 Li1_B2_n252 Li+    0.000000    0.000000    0.502662    2.000000 Uiso  1.0000
 Li2_B2_n252 Li+    0.500000    0.500000    0.502662    2.000000 Uiso  0.3650
 Li1_B2_n253 Li+    0.000000    0.000000    0.504662    2.000000 Uiso  1.0000
 Li2_B2_n253 Li+    0.500000    0.500000    0.504662    2.000000 Uiso  0.3650
 Li1_B2_n254 Li+    0.000000    0.000000    0.506662    2.000000 Uiso  1.0000
 Li2_B2_n254 Li+    0.500000    0.500000    0.506662    2.000000 Uiso  0.3650
 Li1_B2_n255 Li+    0.000000    0.000000    0.508662    2.000000 Uiso  1.0000
 Li2_B2_n255 Li+    0.500000    0.500000    0.508662    2.000000 Uiso  0.3650
 Li1_B2_n256 Li+    0.000000    0.000000    0.510662    2.000000 Uiso  1.0000
 Li2_B2_n256 Li+    0.500000    0.500000    0.510662    2.000000 Uiso  0.3650
 Li1_B2_n257 Li+    0.000000    0.000000    0.512662    2.000000 Uiso  1.0000
 Li2_B2_n257 Li+    0.500000    0.500000    0.512662    2.000000 Uiso  0.3650
 Li1_B2_n258 Li+    0.000000    0.000000    0.514662    2.000000 Uiso  1.0000
 Li2_B2_n258 Li+    0.500000    0.500000    0.514662    2.000000 Uiso  0.3650
 Li1_B2_n259 Li+    0.000000    0.000000    0.516662    2.000000 Uiso  1.0000
 Li2_B2_n259 Li+    0.500000    0.500000    0.516662    2.000000 Uiso  0.3650
 Li1_B2_n260 Li+    0.000000    0.000000    0.518662    2.000000 Uiso  1.0000
 Li2_B2_n260 Li+    0.500000    0.500000    0.518662    2.000000 Uiso  0.3650
 Li1_B2_n261 Li+    0.000000    0.000000    0.520662    2.000000 Uiso  1.0000
 Li2_B2_n261 Li+    0.500000    0.500000    0.520662    2.000000 Uiso  0.3650
 Li1_B2_n262 Li+    0.000000    0.000000    0.522662    2.000000 Uiso  1.0000
 Li2_B2_n262 Li+    0.500000    0.500000    0.522662    2.000000 Uiso  0.3650
 Li1_B2_n263 Li+    0.000000    0.000000    0.524662    2.000000 Uiso  1.0000
 Li2_B2_n263 Li+    0.500000    0.500000    0.524662    2.000000 Uiso  0.3650
 Li1_B2_n264 Li+    0.000000    0.000000    0.526662    2.000000 Uiso  1.0000
 Li2_B2_n264 Li+    0.500000    0.500000    0.526662    2.000000 Uiso  0.3650
 Li1_B2_n265 Li+    0.000000    0.000000    0.528662    2.000000 Uiso  1.0000
 Li2_B2_n265 Li+    0.500000    0.500000    0.528662    2.000000 Uiso  0.3650
 Li1_B2_n266 Li+    0.000000    0.000000    0.530662    2.000000 Uiso  1.0000
 Li2_B2_n266 Li+    0.500000    0.500000    0.530662    2.000000 Uiso  0.3650
 Li1_B2_n267 Li+    0.000000    0.000000    0.532662    2.000000 Uiso  1.0000
 Li2_B2_n267 Li+    0.500000    0.500000    0.532662    2.000000 Uiso  0.3650
 Li1_B2_n268 Li+    0.000000    0.000000    0.534662    2.000000 Uiso  1.0000
 Li2_B2_n268 Li+    0.500000    0.500000    0.534662    2.000000 Uiso  0.3650
 Li1_B2_n269 Li+    0.000000    0.000000    0.536662    2.000000 Uiso  1.0000
 Li2_B2_n269 Li+    0.500000    0.500000    0.536662    2.000000 Uiso  0.3650
 Li1_B2_n270 Li+    0.000000    0.000000    0.538662    2.000000 Uiso  1.0000
 Li2_B2_n270 Li+    0.500000    0.500000    0.538662    2.000000 Uiso  0.3650
 Li1_B2_n271 Li+    0.000000    0.000000    0.540662    2.000000 Uiso  1.0000
 Li2_B2_n271 Li+    0.500000    0.500000    0.540662    2.000000 Uiso  0.3650
 Li1_B2_n272 Li+    0.000000    0.000000    0.542662    2.000000 Uiso  1.0000
 Li2_B2_n272 Li+    0.500000    0.500000    0.542662    2.000000 Uiso  0.3650
 Li1_B2_n273 Li+    0.000000    0.000000    0.544662    2.000000 Uiso  1.0000
 Li2_B2_n273 Li+    0.500000    0.500000    0.544662    2.000000 Uiso  0.3650
 Li1_B2_n274 Li+    0.000000    0.000000    0.546662    2.000000 Uiso  1.0000
 Li2_B2_n274 Li+    0.500000    0.500000    0.546662    2.000000 Uiso  0.3650
 Li1_B2_n275 Li+    0.000000    0.000000    0.548662    2.000000 Uiso  1.0000
 Li2_B2_n275 Li+    0.500000    0.500000    0.548662    2.000000 Uiso  0.3650
 Li1_B2_n276 Li+    0.000000    0.000000    0.550662    2.000000 Uiso  1.0000
 Li2_B2_n276 Li+    0.500000    0.500000    0.550662    2.000000 Uiso  0.3650
 Li1_B2_n277 Li+    0.000000    0.000000    0.552662    2.000000 Uiso  1.0000
 Li2_B2_n277 Li+    0.500000    0.500000    0.552662    2.000000 Uiso  0.3650
 Li1_B2_n278 Li+    0.000000    0.000000    0.554662    2.000000 Uiso  1.0000
 Li2_B2_n278 Li+    0.500000    0.500000    0.554662    2.000000 Uiso  0.3650
 Li1_B2_n279 Li+    0.000000    0.000000    0.556662    2.000000 Uiso  1.0000
 Li2_B2_n279 Li+    0.500000    0.500000    0.556662    2.000000 Uiso  0.3650
 Li1_B2_n280 Li+    0.000000    0.000000    0.558662    2.000000 Uiso  1.0000
 Li2_B2_n280 Li+    0.500000    0.500000    0.558662    2.000000 Uiso  0.3650
 Li1_B2_n281 Li+    0.000000    0.000000    0.560662    2.000000 Uiso  1.0000
 Li2_B2_n281 Li+    0.500000    0.500000    0.560662    2.000000 Uiso  0.3650
 Li1_B2_n282 Li+    0.000000    0.000000    0.562662    2.000000 Uiso  1.0000
 Li2_B2_n282 Li+    0.500000    0.500000    0.562662    2.000000 Uiso  0.3650
 Li1_B2_n283 Li+    0.000000    0.000000    0.564662    2.000000 Uiso  1.0000
 Li2_B2_n283 Li+    0.500000    0.500000    0.564662    2.000000 Uiso  0.3650
 Li1_B2_n284 Li+    0.000000    0.000000    0.566662    2.000000 Uiso  1.0000
 Li2_B2_n284 Li+    0.500000    0.500000    0.566662    2.000000 Uiso  0.3650
 Li1_B2_n285 Li+    0.000000    0.000000    0.568662    2.000000 Uiso  1.0000
 Li2_B2_n285 Li+    0.500000    0.500000    0.568662    2.000000 Uiso  0.3650
 Li1_B2_n286 Li+    0.000000    0.000000    0.570662    2.000000 Uiso  1.0000
 Li2_B2_n286 Li+    0.500000    0.500000    0.570662    2.000000 Uiso  0.3650
 Li1_B2_n287 Li+    0.000000    0.000000    0.572662    2.000000 Uiso  1.0000
 Li2_B2_n287 Li+    0.500000    0.500000    0.572662    2.000000 Uiso  0.3650
 Li1_B2_n288 Li+    0.000000    0.000000    0.574662    2.000000 Uiso  1.0000
 Li2_B2_n288 Li+    0.500000    0.500000    0.574662    2.000000 Uiso  0.3650
 Li1_B2_n289 Li+    0.000000    0.000000    0.576662    2.000000 Uiso  1.0000
 Li2_B2_n289 Li+    0.500000    0.500000    0.576662    2.000000 Uiso  0.3650
 Li1_B2_n290 Li+    0.000000    0.000000    0.578662    2.000000 Uiso  1.0000
 Li2_B2_n290 Li+    0.500000    0.500000    0.578662    2.000000 Uiso  0.3650
 Li1_B2_n291 Li+    0.000000    0.000000    0.580662    2.000000 Uiso  1.0000
 Li2_B2_n291 Li+    0.500000    0.500000    0.580662    2.000000 Uiso  0.3650
 Li1_B2_n292 Li+    0.000000    0.000000    0.582662    2.000000 Uiso  1.0000
 Li2_B2_n292 Li+    0.500000    0.500000    0.582662    2.000000 Uiso  0.3650
 Li1_B2_n293 Li+    0.000000    0.000000    0.584662    2.000000 Uiso  1.0000
 Li2_B2_n293 Li+    0.500000    0.500000    0.584662    2.000000 Uiso  0.3650
 Li1_B2_n294 Li+    0.000000    0.000000    0.586662    2.000000 Uiso  1.0000
 Li2_B2_n294 Li+    0.500000    0.500000    0.586662    2.000000 Uiso  0.3650
 Li1_B2_n295 Li+    0.000000    0.000000    0.588662    2.000000 Uiso  1.0000
 Li2_B2_n295 Li+    0.500000    0.500000    0.588662    2.000000 Uiso  0.3650
 Li1_B2_n296 Li+    0.000000    0.000000    0.590662    2.000000 Uiso  1.0000
 Li2_B2_n296 Li+    0.500000    0.500000    0.590662    2.000000 Uiso  0.3650
 Li1_B2_n297 Li+    0.000000    0.000000    0.592662    2.000000 Uiso  1.0000
 Li2_B2_n297 Li+    0.500000    0.500000    0.592662    2.000000 Uiso  0.3650
 Li1_B2_n298 Li+    0.000000    0.000000    0.594662    2.000000 Uiso  1.0000
 Li2_B2_n298 Li+    0.500000    0.500000    0.594662    2.000000 Uiso  0.3650
 Li1_B2_n299 Li+    0.000000    0.000000    0.596662    2.000000 Uiso  1.0000
 Li2_B2_n299 Li+    0.500000    0.500000    0.596662    2.000000 Uiso  0.3650
 Li1_B2_n300 Li+    0.000000    0.000000    0.598662    2.000000 Uiso  1.0000
 Li2_B2_n300 Li+    0.500000    0.500000    0.598662    2.000000 Uiso  0.3650
 Li1_B2_n301 Li+    0.000000    0.000000    0.600662    2.000000 Uiso  1.0000
 Li2_B2_n301 Li+    0.500000    0.500000    0.600662    2.000000 Uiso  0.3650
 Li1_B2_n302 Li+    0.000000    0.000000    0.602662    2.000000 Uiso  1.0000
 Li2_B2_n302 Li+    0.500000    0.500000    0.602662    2.000000 Uiso  0.3650
 Li1_B2_n303 Li+    0.000000    0.000000    0.604662    2.000000 Uiso  1.0000
 Li2_B2_n303 Li+    0.500000    0.500000    0.604662    2.000000 Uiso  0.3650
 Li1_B2_n304 Li+    0.000000    0.000000    0.606662    2.000000 Uiso  1.0000
 Li2_B2_n304 Li+    0.500000    0.500000    0.606662    2.000000 Uiso  0.3650
 Li1_B2_n305 Li+    0.000000    0.000000    0.608662    2.000000 Uiso  1.0000
 Li2_B2_n305 Li+    0.500000    0.500000    0.608662    2.000000 Uiso  0.3650
 Li1_B2_n306 Li+    0.000000    0.000000    0.610662    2.000000 Uiso  1.0000
 Li2_B2_n306 Li+    0.500000    0.500000    0.610662    2.000000 Uiso  0.3650
 Li1_B2_n307 Li+    0.000000    0.000000    0.612662    2.000000 Uiso  1.0000
 Li2_B2_n307 Li+    0.500000    0.500000    0.612662    2.000000 Uiso  0.3650
 Li1_B2_n308 Li+    0.000000    0.000000    0.614662    2.000000 Uiso  1.0000
 Li2_B2_n308 Li+    0.500000    0.500000    0.614662    2.000000 Uiso  0.3650
 Li1_B2_n309 Li+    0.000000    0.000000    0.616662    2.000000 Uiso  1.0000
 Li2_B2_n309 Li+    0.500000    0.500000    0.616662    2.000000 Uiso  0.3650
 Li1_B2_n310 Li+    0.000000    0.000000    0.618662    2.000000 Uiso  1.0000
 Li2_B2_n310 Li+    0.500000    0.500000    0.618662    2.000000 Uiso  0.3650
 Li1_B2_n311 Li+    0.000000    0.000000    0.620662    2.000000 Uiso  1.0000
 Li2_B2_n311 Li+    0.500000    0.500000    0.620662    2.000000 Uiso  0.3650
 Li1_B2_n312 Li+    0.000000    0.000000    0.622662    2.000000 Uiso  1.0000
 Li2_B2_n312 Li+    0.500000    0.500000    0.622662    2.000000 Uiso  0.3650
 Li1_B2_n313 Li+    0.000000    0.000000    0.624662    2.000000 Uiso  1.0000
 Li2_B2_n313 Li+    0.500000    0.500000    0.624662    2.000000 Uiso  0.3650
 Li1_B2_n314 Li+    0.000000    0.000000    0.626662    2.000000 Uiso  1.0000
 Li2_B2_n314 Li+    0.500000    0.500000    0.626662    2.000000 Uiso  0.3650
 Li1_B2_n315 Li+    0.000000    0.000000    0.628662    2.000000 Uiso  1.0000
 Li2_B2_n315 Li+    0.500000    0.500000    0.628662    2.000000 Uiso  0.3650
 Li1_B2_n316 Li+    0.000000    0.000000    0.630662    2.000000 Uiso  1.0000
 Li2_B2_n316 Li+    0.500000    0.500000    0.630662    2.000000 Uiso  0.3650
 Li1_B2_n317 Li+    0.000000    0.000000    0.632662    2.000000 Uiso  1.0000
 Li2_B2_n317 Li+    0.500000    0.500000    0.632662    2.000000 Uiso  0.3650
 Li1_B2_n318 Li+    0.000000    0.000000    0.634662    2.000000 Uiso  1.0000
 Li2_B2_n318 Li+    0.500000    0.500000    0.634662    2.000000 Uiso  0.3650
 Li1_B2_n319 Li+    0.000000    0.000000    0.636662    2.000000 Uiso  1.0000
 Li2_B2_n319 Li+    0.500000    0.500000    0.636662    2.000000 Uiso  0.3650
 Li1_B2_n320 Li+    0.000000    0.000000    0.638662    2.000000 Uiso  1.0000
 Li2_B2_n320 Li+    0.500000    0.500000    0.638662    2.000000 Uiso  0.3650
 Li1_B2_n321 Li+    0.000000    0.000000    0.640662    2.000000 Uiso  1.0000
 Li2_B2_n321 Li+    0.500000    0.500000    0.640662    2.000000 Uiso  0.3650
 Li1_B2_n322 Li+    0.000000    0.000000    0.642662    2.000000 Uiso  1.0000
 Li2_B2_n322 Li+    0.500000    0.500000    0.642662    2.000000 Uiso  0.3650
 Li1_B2_n323 Li+    0.000000    0.000000    0.644662    2.000000 Uiso  1.0000
 Li2_B2_n323 Li+    0.500000    0.500000    0.644662    2.000000 Uiso  0.3650
 Li1_B2_n324 Li+    0.000000    0.000000    0.646662    2.000000 Uiso  1.0000
 Li2_B2_n324 Li+    0.500000    0.500000    0.646662    2.000000 Uiso  0.3650
 Li1_B2_n325 Li+    0.000000    0.000000    0.648662    2.000000 Uiso  1.0000
 Li2_B2_n325 Li+    0.500000    0.500000    0.648662    2.000000 Uiso  0.3650
 Li1_B2_n326 Li+    0.000000    0.000000    0.650662    2.000000 Uiso  1.0000
 Li2_B2_n326 Li+    0.500000    0.500000    0.650662    2.000000 Uiso  0.3650
 Li1_B2_n327 Li+    0.000000    0.000000    0.652662    2.000000 Uiso  1.0000
 Li2_B2_n327 Li+    0.500000    0.500000    0.652662    2.000000 Uiso  0.3650
 Li1_B2_n328 Li+    0.000000    0.000000    0.654662    2.000000 Uiso  1.0000
 Li2_B2_n328 Li+    0.500000    0.500000    0.654662    2.000000 Uiso  0.3650
 Li1_B2_n329 Li+    0.000000    0.000000    0.656662    2.000000 Uiso  1.0000
 Li2_B2_n329 Li+    0.500000    0.500000    0.656662    2.000000 Uiso  0.3650
 Li1_B2_n330 Li+    0.000000    0.000000    0.658662    2.000000 Uiso  1.0000
 Li2_B2_n330 Li+    0.500000    0.500000    0.658662    2.000000 Uiso  0.3650
 Li1_B2_n331 Li+    0.000000    0.000000    0.660662    2.000000 Uiso  1.0000
 Li2_B2_n331 Li+    0.500000    0.500000    0.660662    2.000000 Uiso  0.3650
 Li1_B2_n332 Li+    0.000000    0.000000    0.662662    2.000000 Uiso  1.0000
 Li2_B2_n332 Li+    0.500000    0.500000    0.662662    2.000000 Uiso  0.3650
 Li1_B2_n333 Li+    0.000000    0.000000    0.664662    2.000000 Uiso  1.0000
 Li2_B2_n333 Li+    0.500000    0.500000    0.664662    2.000000 Uiso  0.3650
 Li1_B2_n334 Li+    0.000000    0.000000    0.666662    2.000000 Uiso  1.0000
 Li2_B2_n334 Li+    0.500000    0.500000    0.666662    2.000000 Uiso  0.3650
 Li1_B2_n335 Li+    0.000000    0.000000    0.668662    2.000000 Uiso  1.0000
 Li2_B2_n335 Li+    0.500000    0.500000    0.668662    2.000000 Uiso  0.3650
 Li1_B2_n336 Li+    0.000000    0.000000    0.670662    2.000000 Uiso  1.0000
 Li2_B2_n336 Li+    0.500000    0.500000    0.670662    2.000000 Uiso  0.3650
 Li1_B2_n337 Li+    0.000000    0.000000    0.672662    2.000000 Uiso  1.0000
 Li2_B2_n337 Li+    0.500000    0.500000    0.672662    2.000000 Uiso  0.3650
 Li1_B2_n338 Li+    0.000000    0.000000    0.674662    2.000000 Uiso  1.0000
 Li2_B2_n338 Li+    0.500000    0.500000    0.674662    2.000000 Uiso  0.3650
 Li1_B2_n339 Li+    0.000000    0.000000    0.676662    2.000000 Uiso  1.0000
 Li2_B2_n339 Li+    0.500000    0.500000    0.676662    2.000000 Uiso  0.3650
 Li1_B2_n340 Li+    0.000000    0.000000    0.678662    2.000000 Uiso  1.0000
 Li2_B2_n340 Li+    0.500000    0.500000    0.678662    2.000000 Uiso  0.3650
 Li1_B2_n341 Li+    0.000000    0.000000    0.680662    2.000000 Uiso  1.0000
 Li2_B2_n341 Li+    0.500000    0.500000    0.680662    2.000000 Uiso  0.3650
 Li1_B2_n342 Li+    0.000000    0.000000    0.682662    2.000000 Uiso  1.0000
 Li2_B2_n342 Li+    0.500000    0.500000    0.682662    2.000000 Uiso  0.3650
 Li1_B2_n343 Li+    0.000000    0.000000    0.684662    2.000000 Uiso  1.0000
 Li2_B2_n343 Li+    0.500000    0.500000    0.684662    2.000000 Uiso  0.3650
 Li1_B2_n344 Li+    0.000000    0.000000    0.686662    2.000000 Uiso  1.0000
 Li2_B2_n344 Li+    0.500000    0.500000    0.686662    2.000000 Uiso  0.3650
 Li1_B2_n345 Li+    0.000000    0.000000    0.688662    2.000000 Uiso  1.0000
 Li2_B2_n345 Li+    0.500000    0.500000    0.688662    2.000000 Uiso  0.3650
 Li1_B2_n346 Li+    0.000000    0.000000    0.690662    2.000000 Uiso  1.0000
 Li2_B2_n346 Li+    0.500000    0.500000    0.690662    2.000000 Uiso  0.3650
 Li1_B2_n347 Li+    0.000000    0.000000    0.692662    2.000000 Uiso  1.0000
 Li2_B2_n347 Li+    0.500000    0.500000    0.692662    2.000000 Uiso  0.3650
 Li1_B2_n348 Li+    0.000000    0.000000    0.694662    2.000000 Uiso  1.0000
 Li2_B2_n348 Li+    0.500000    0.500000    0.694662    2.000000 Uiso  0.3650
 Li1_B2_n349 Li+    0.000000    0.000000    0.696662    2.000000 Uiso  1.0000
 Li2_B2_n349 Li+    0.500000    0.500000    0.696662    2.000000 Uiso  0.3650
 Li1_B2_n350 Li+    0.000000    0.000000    0.698662    2.000000 Uiso  1.0000
 Li2_B2_n350 Li+    0.500000    0.500000    0.698662    2.000000 Uiso  0.3650
 Li1_B2_n351 Li+    0.000000    0.000000    0.700662    2.000000 Uiso  1.0000
 Li2_B2_n351 Li+    0.500000    0.500000    0.700662    2.000000 Uiso  0.3650
 Li1_B2_n352 Li+    0.000000    0.000000    0.702662    2.000000 Uiso  1.0000
 Li2_B2_n352 Li+    0.500000    0.500000    0.702662    2.000000 Uiso  0.3650
 Li1_B2_n353 Li+    0.000000    0.000000    0.704662    2.000000 Uiso  1.0000
 Li2_B2_n353 Li+    0.500000    0.500000    0.704662    2.000000 Uiso  0.3650
 Li1_B2_n354 Li+    0.000000    0.000000    0.706662    2.000000 Uiso  1.0000
 Li2_B2_n354 Li+    0.500000    0.500000    0.706662    2.000000 Uiso  0.3650
 Li1_B2_n355 Li+    0.000000    0.000000    0.708662    2.000000 Uiso  1.0000
 Li2_B2_n355 Li+    0.500000    0.500000    0.708662    2.000000 Uiso  0.3650
 Li1_B2_n356 Li+    0.000000    0.000000    0.710662    2.000000 Uiso  1.0000
 Li2_B2_n356 Li+    0.500000    0.500000    0.710662    2.000000 Uiso  0.3650
 Li1_B2_n357 Li+    0.000000    0.000000    0.712662    2.000000 Uiso  1.0000
 Li2_B2_n357 Li+    0.500000    0.500000    0.712662    2.000000 Uiso  0.3650
 Li1_B2_n358 Li+    0.000000    0.000000    0.714662    2.000000 Uiso  1.0000
 Li2_B2_n358 Li+    0.500000    0.500000    0.714662    2.000000 Uiso  0.3650
 Li1_B2_n359 Li+    0.000000    0.000000    0.716662    2.000000 Uiso  1.0000
 Li2_B2_n359 Li+    0.500000    0.500000    0.716662    2.000000 Uiso  0.3650
 Li1_B2_n360 Li+    0.000000    0.000000    0.718662    2.000000 Uiso  1.0000
 Li2_B2_n360 Li+    0.500000    0.500000    0.718662    2.000000 Uiso  0.3650
 Li1_B2_n361 Li+    0.000000    0.000000    0.720662    2.000000 Uiso  1.0000
 Li2_B2_n361 Li+    0.500000    0.500000    0.720662    2.000000 Uiso  0.3650
 Li1_B2_n362 Li+    0.000000    0.000000    0.722662    2.000000 Uiso  1.0000
 Li2_B2_n362 Li+    0.500000    0.500000    0.722662    2.000000 Uiso  0.3650
 Li1_B2_n363 Li+    0.000000    0.000000    0.724662    2.000000 Uiso  1.0000
 Li2_B2_n363 Li+    0.500000    0.500000    0.724662    2.000000 Uiso  0.3650
 Li1_B2_n364 Li+    0.000000    0.000000    0.726662    2.000000 Uiso  1.0000
 Li2_B2_n364 Li+    0.500000    0.500000    0.726662    2.000000 Uiso  0.3650
 Li1_B2_n365 Li+    0.000000    0.000000    0.728662    2.000000 Uiso  1.0000
 Li2_B2_n365 Li+    0.500000    0.500000    0.728662    2.000000 Uiso  0.3650
 Li1_B2_n366 Li+    0.000000    0.000000    0.730662    2.000000 Uiso  1.0000
 Li2_B2_n366 Li+    0.500000    0.500000    0.730662    2.000000 Uiso  0.3650
 Li1_B2_n367 Li+    0.000000    0.000000    0.732662    2.000000 Uiso  1.0000
 Li2_B2_n367 Li+    0.500000    0.500000    0.732662    2.000000 Uiso  0.3650
 Li1_B2_n368 Li+    0.000000    0.000000    0.734662    2.000000 Uiso  1.0000
 Li2_B2_n368 Li+    0.500000    0.500000    0.734662    2.000000 Uiso  0.3650
 Li1_B2_n369 Li+    0.000000    0.000000    0.736662    2.000000 Uiso  1.0000
 Li2_B2_n369 Li+    0.500000    0.500000    0.736662    2.000000 Uiso  0.3650
 Li1_B2_n370 Li+    0.000000    0.000000    0.738662    2.000000 Uiso  1.0000
 Li2_B2_n370 Li+    0.500000    0.500000    0.738662    2.000000 Uiso  0.3650
 Li1_B2_n371 Li+    0.000000    0.000000    0.740662    2.000000 Uiso  1.0000
 Li2_B2_n371 Li+    0.500000    0.500000    0.740662    2.000000 Uiso  0.3650
 Li1_B2_n372 Li+    0.000000    0.000000    0.742662    2.000000 Uiso  1.0000
 Li2_B2_n372 Li+    0.500000    0.500000    0.742662    2.000000 Uiso  0.3650
 Li1_B2_n373 Li+    0.000000    0.000000    0.744662    2.000000 Uiso  1.0000
 Li2_B2_n373 Li+    0.500000    0.500000    0.744662    2.000000 Uiso  0.3650
 Li1_B2_n374 Li+    0.000000    0.000000    0.746662    2.000000 Uiso  1.0000
 Li2_B2_n374 Li+    0.500000    0.500000    0.746662    2.000000 Uiso  0.3650
 Li1_B2_n375 Li+    0.000000    0.000000    0.748662    2.000000 Uiso  1.0000
 Li2_B2_n375 Li+    0.500000    0.500000    0.748662    2.000000 Uiso  0.3650
 Li1_B2_n376 Li+    0.000000    0.000000    0.750662    2.000000 Uiso  1.0000
 Li2_B2_n376 Li+    0.500000    0.500000    0.750662    2.000000 Uiso  0.3650
 Li1_B2_n377 Li+    0.000000    0.000000    0.752662    2.000000 Uiso  1.0000
 Li2_B2_n377 Li+    0.500000    0.500000    0.752662    2.000000 Uiso  0.3650
 Li1_B2_n378 Li+    0.000000    0.000000    0.754662    2.000000 Uiso  1.0000
 Li2_B2_n378 Li+    0.500000    0.500000    0.754662    2.000000 Uiso  0.3650
 Li1_B2_n379 Li+    0.000000    0.000000    0.756662    2.000000 Uiso  1.0000
 Li2_B2_n379 Li+    0.500000    0.500000    0.756662    2.000000 Uiso  0.3650
 Li1_B2_n380 Li+    0.000000    0.000000    0.758662    2.000000 Uiso  1.0000
 Li2_B2_n380 Li+    0.500000    0.500000    0.758662    2.000000 Uiso  0.3650
 Li1_B2_n381 Li+    0.000000    0.000000    0.760662    2.000000 Uiso  1.0000
 Li2_B2_n381 Li+    0.500000    0.500000    0.760662    2.000000 Uiso  0.3650
 Li1_B2_n382 Li+    0.000000    0.000000    0.762662    2.000000 Uiso  1.0000
 Li2_B2_n382 Li+    0.500000    0.500000    0.762662    2.000000 Uiso  0.3650
 Li1_B2_n383 Li+    0.000000    0.000000    0.764662    2.000000 Uiso  1.0000
 Li2_B2_n383 Li+    0.500000    0.500000    0.764662    2.000000 Uiso  0.3650
 Li1_B2_n384 Li+    0.000000    0.000000    0.766662    2.000000 Uiso  1.0000
 Li2_B2_n384 Li+    0.500000    0.500000    0.766662    2.000000 Uiso  0.3650
 Li1_B2_n385 Li+    0.000000    0.000000    0.768662    2.000000 Uiso  1.0000
 Li2_B2_n385 Li+    0.500000    0.500000    0.768662    2.000000 Uiso  0.3650
 Li1_B2_n386 Li+    0.000000    0.000000    0.770662    2.000000 Uiso  1.0000
 Li2_B2_n386 Li+    0.500000    0.500000    0.770662    2.000000 Uiso  0.3650
 Li1_B2_n387 Li+    0.000000    0.000000    0.772662    2.000000 Uiso  1.0000
 Li2_B2_n387 Li+    0.500000    0.500000    0.772662    2.000000 Uiso  0.3650
 Li1_B2_n388 Li+    0.000000    0.000000    0.774662    2.000000 Uiso  1.0000
 Li2_B2_n388 Li+    0.500000    0.500000    0.774662    2.000000 Uiso  0.3650
 Li1_B2_n389 Li+    0.000000    0.000000    0.776662    2.000000 Uiso  1.0000
 Li2_B2_n389 Li+    0.500000    0.500000    0.776662    2.000000 Uiso  0.3650
 Li1_B2_n390 Li+    0.000000    0.000000    0.778662    2.000000 Uiso  1.0000
 Li2_B2_n390 Li+    0.500000    0.500000    0.778662    2.000000 Uiso  0.3650
 Li1_B2_n391 Li+    0.000000    0.000000    0.780662    2.000000 Uiso  1.0000
 Li2_B2_n391 Li+    0.500000    0.500000    0.780662    2.000000 Uiso  0.3650
 Li1_B2_n392 Li+    0.000000    0.000000    0.782662    2.000000 Uiso  1.0000
 Li2_B2_n392 Li+    0.500000    0.500000    0.782662    2.000000 Uiso  0.3650
 Li1_B2_n393 Li+    0.000000    0.000000    0.784662    2.000000 Uiso  1.0000
 Li2_B2_n393 Li+    0.500000    0.500000    0.784662    2.000000 Uiso  0.3650
 Li1_B2_n394 Li+    0.000000    0.000000    0.786662    2.000000 Uiso  1.0000
 Li2_B2_n394 Li+    0.500000    0.500000    0.786662    2.000000 Uiso  0.3650
 Li1_B2_n395 Li+    0.000000    0.000000    0.788662    2.000000 Uiso  1.0000
 Li2_B2_n395 Li+    0.500000    0.500000    0.788662    2.000000 Uiso  0.3650
 Li1_B2_n396 Li+    0.000000    0.000000    0.790662    2.000000 Uiso  1.0000
 Li2_B2_n396 Li+    0.500000    0.500000    0.790662    2.000000 Uiso  0.3650
 Li1_B2_n397 Li+    0.000000    0.000000    0.792662    2.000000 Uiso  1.0000
 Li2_B2_n397 Li+    0.500000    0.500000    0.792662    2.000000 Uiso  0.3650
 Li1_B2_n398 Li+    0.000000    0.000000    0.794662    2.000000 Uiso  1.0000
 Li2_B2_n398 Li+    0.500000    0.500000    0.794662    2.000000 Uiso  0.3650
 Li1_B2_n399 Li+    0.000000    0.000000    0.796662    2.000000 Uiso  1.0000
 Li2_B2_n399 Li+    0.500000    0.500000    0.796662    2.000000 Uiso  0.3650
 Li1_B2_n400 Li+    0.000000    0.000000    0.798662    2.000000 Uiso  1.0000
 Li2_B2_n400 Li+    0.500000    0.500000    0.798662    2.000000 Uiso  0.3650
 Li1_B2_n401 Li+    0.000000    0.000000    0.800662    2.000000 Uiso  1.0000
 Li2_B2_n401 Li+    0.500000    0.500000    0.800662    2.000000 Uiso  0.3650
 Li1_B2_n402 Li+    0.000000    0.000000    0.802662    2.000000 Uiso  1.0000
 Li2_B2_n402 Li+    0.500000    0.500000    0.802662    2.000000 Uiso  0.3650
 Li1_B2_n403 Li+    0.000000    0.000000    0.804662    2.000000 Uiso  1.0000
 Li2_B2_n403 Li+    0.500000    0.500000    0.804662    2.000000 Uiso  0.3650
 Li1_B2_n404 Li+    0.000000    0.000000    0.806662    2.000000 Uiso  1.0000
 Li2_B2_n404 Li+    0.500000    0.500000    0.806662    2.000000 Uiso  0.3650
 Li1_B2_n405 Li+    0.000000    0.000000    0.808662    2.000000 Uiso  1.0000
 Li2_B2_n405 Li+    0.500000    0.500000    0.808662    2.000000 Uiso  0.3650
 Li1_B2_n406 Li+    0.000000    0.000000    0.810662    2.000000 Uiso  1.0000
 Li2_B2_n406 Li+    0.500000    0.500000    0.810662    2.000000 Uiso  0.3650
 Li1_B2_n407 Li+    0.000000    0.000000    0.812662    2.000000 Uiso  1.0000
 Li2_B2_n407 Li+    0.500000    0.500000    0.812662    2.000000 Uiso  0.3650
 Li1_B2_n408 Li+    0.000000    0.000000    0.814662    2.000000 Uiso  1.0000
 Li2_B2_n408 Li+    0.500000    0.500000    0.814662    2.000000 Uiso  0.3650
 Li1_B2_n409 Li+    0.000000    0.000000    0.816662    2.000000 Uiso  1.0000
 Li2_B2_n409 Li+    0.500000    0.500000    0.816662    2.000000 Uiso  0.3650
 Li1_B2_n410 Li+    0.000000    0.000000    0.818662    2.000000 Uiso  1.0000
 Li2_B2_n410 Li+    0.500000    0.500000    0.818662    2.000000 Uiso  0.3650
 Li1_B2_n411 Li+    0.000000    0.000000    0.820662    2.000000 Uiso  1.0000
 Li2_B2_n411 Li+    0.500000    0.500000    0.820662    2.000000 Uiso  0.3650
 Li1_B2_n412 Li+    0.000000    0.000000    0.822662    2.000000 Uiso  1.0000
 Li2_B2_n412 Li+    0.500000    0.500000    0.822662    2.000000 Uiso  0.3650
 Li1_B2_n413 Li+    0.000000    0.000000    0.824662    2.000000 Uiso  1.0000
 Li2_B2_n413 Li+    0.500000    0.500000    0.824662    2.000000 Uiso  0.3650
 Li1_B2_n414 Li+    0.000000    0.000000    0.826662    2.000000 Uiso  1.0000
 Li2_B2_n414 Li+    0.500000    0.500000    0.826662    2.000000 Uiso  0.3650
 Li1_B2_n415 Li+    0.000000    0.000000    0.828662    2.000000 Uiso  1.0000
 Li2_B2_n415 Li+    0.500000    0.500000    0.828662    2.000000 Uiso  0.3650
 Li1_B2_n416 Li+    0.000000    0.000000    0.830662    2.000000 Uiso  1.0000
 Li2_B2_n416 Li+    0.500000    0.500000    0.830662    2.000000 Uiso  0.3650
 Li1_B2_n417 Li+    0.000000    0.000000    0.832662    2.000000 Uiso  1.0000
 Li2_B2_n417 Li+    0.500000    0.500000    0.832662    2.000000 Uiso  0.3650
 Li1_B2_n418 Li+    0.000000    0.000000    0.834662    2.000000 Uiso  1.0000
 Li2_B2_n418 Li+    0.500000    0.500000    0.834662    2.000000 Uiso  0.3650
 Li1_B2_n419 Li+    0.000000    0.000000    0.836662    2.000000 Uiso  1.0000
 Li2_B2_n419 Li+    0.500000    0.500000    0.836662    2.000000 Uiso  0.3650
 Li1_B2_n420 Li+    0.000000    0.000000    0.838662    2.000000 Uiso  1.0000
 Li2_B2_n420 Li+    0.500000    0.500000    0.838662    2.000000 Uiso  0.3650
 Li1_B2_n421 Li+    0.000000    0.000000    0.840662    2.000000 Uiso  1.0000
 Li2_B2_n421 Li+    0.500000    0.500000    0.840662    2.000000 Uiso  0.3650
 Li1_B2_n422 Li+    0.000000    0.000000    0.842662    2.000000 Uiso  1.0000
 Li2_B2_n422 Li+    0.500000    0.500000    0.842662    2.000000 Uiso  0.3650
 Li1_B2_n423 Li+    0.000000    0.000000    0.844662    2.000000 Uiso  1.0000
 Li2_B2_n423 Li+    0.500000    0.500000    0.844662    2.000000 Uiso  0.3650
 Li1_B2_n424 Li+    0.000000    0.000000    0.846662    2.000000 Uiso  1.0000
 Li2_B2_n424 Li+    0.500000    0.500000    0.846662    2.000000 Uiso  0.3650
 Li1_B2_n425 Li+    0.000000    0.000000    0.848662    2.000000 Uiso  1.0000
 Li2_B2_n425 Li+    0.500000    0.500000    0.848662    2.000000 Uiso  0.3650
 Li1_B2_n426 Li+    0.000000    0.000000    0.850662    2.000000 Uiso  1.0000
 Li2_B2_n426 Li+    0.500000    0.500000    0.850662    2.000000 Uiso  0.3650
 Li1_B2_n427 Li+    0.000000    0.000000    0.852662    2.000000 Uiso  1.0000
 Li2_B2_n427 Li+    0.500000    0.500000    0.852662    2.000000 Uiso  0.3650
 Li1_B2_n428 Li+    0.000000    0.000000    0.854662    2.000000 Uiso  1.0000
 Li2_B2_n428 Li+    0.500000    0.500000    0.854662    2.000000 Uiso  0.3650
 Li1_B2_n429 Li+    0.000000    0.000000    0.856662    2.000000 Uiso  1.0000
 Li2_B2_n429 Li+    0.500000    0.500000    0.856662    2.000000 Uiso  0.3650
 Li1_B2_n430 Li+    0.000000    0.000000    0.858662    2.000000 Uiso  1.0000
 Li2_B2_n430 Li+    0.500000    0.500000    0.858662    2.000000 Uiso  0.3650
 Li1_B2_n431 Li+    0.000000    0.000000    0.860662    2.000000 Uiso  1.0000
 Li2_B2_n431 Li+    0.500000    0.500000    0.860662    2.000000 Uiso  0.3650
 Li1_B2_n432 Li+    0.000000    0.000000    0.862662    2.000000 Uiso  1.0000
 Li2_B2_n432 Li+    0.500000    0.500000    0.862662    2.000000 Uiso  0.3650
 Li1_B2_n433 Li+    0.000000    0.000000    0.864662    2.000000 Uiso  1.0000
 Li2_B2_n433 Li+    0.500000    0.500000    0.864662    2.000000 Uiso  0.3650
 Li1_B2_n434 Li+    0.000000    0.000000    0.866662    2.000000 Uiso  1.0000
 Li2_B2_n434 Li+    0.500000    0.500000    0.866662    2.000000 Uiso  0.3650
 Li1_B2_n435 Li+    0.000000    0.000000    0.868662    2.000000 Uiso  1.0000
 Li2_B2_n435 Li+    0.500000    0.500000    0.868662    2.000000 Uiso  0.3650
 Li1_B2_n436 Li+    0.000000    0.000000    0.870662    2.000000 Uiso  1.0000
 Li2_B2_n436 Li+    0.500000    0.500000    0.870662    2.000000 Uiso  0.3650
 Li1_B2_n437 Li+    0.000000    0.000000    0.872662    2.000000 Uiso  1.0000
 Li2_B2_n437 Li+    0.500000    0.500000    0.872662    2.000000 Uiso  0.3650
 Li1_B2_n438 Li+    0.000000    0.000000    0.874662    2.000000 Uiso  1.0000
 Li2_B2_n438 Li+    0.500000    0.500000    0.874662    2.000000 Uiso  0.3650
 Li1_B2_n439 Li+    0.000000    0.000000    0.876662    2.000000 Uiso  1.0000
 Li2_B2_n439 Li+    0.500000    0.500000    0.876662    2.000000 Uiso  0.3650
 Li1_B2_n440 Li+    0.000000    0.000000    0.878662    2.000000 Uiso  1.0000
 Li2_B2_n440 Li+    0.500000    0.500000    0.878662    2.000000 Uiso  0.3650
 Li1_B2_n441 Li+    0.000000    0.000000    0.880662    2.000000 Uiso  1.0000
 Li2_B2_n441 Li+    0.500000    0.500000    0.880662    2.000000 Uiso  0.3650
 Li1_B2_n442 Li+    0.000000    0.000000    0.882662    2.000000 Uiso  1.0000
 Li2_B2_n442 Li+    0.500000    0.500000    0.882662    2.000000 Uiso  0.3650
 Li1_B2_n443 Li+    0.000000    0.000000    0.884662    2.000000 Uiso  1.0000
 Li2_B2_n443 Li+    0.500000    0.500000    0.884662    2.000000 Uiso  0.3650
 Li1_B2_n444 Li+    0.000000    0.000000    0.886662    2.000000 Uiso  1.0000
 Li2_B2_n444 Li+    0.500000    0.500000    0.886662    2.000000 Uiso  0.3650
 Li1_B2_n445 Li+    0.000000    0.000000    0.888662    2.000000 Uiso  1.0000
 Li2_B2_n445 Li+    0.500000    0.500000    0.888662    2.000000 Uiso  0.3650
 Li1_B2_n446 Li+    0.000000    0.000000    0.890662    2.000000 Uiso  1.0000
 Li2_B2_n446 Li+    0.500000    0.500000    0.890662    2.000000 Uiso  0.3650
 Li1_B2_n447 Li+    0.000000    0.000000    0.892662    2.000000 Uiso  1.0000
 Li2_B2_n447 Li+    0.500000    0.500000    0.892662    2.000000 Uiso  0.3650
 Li1_B2_n448 Li+    0.000000    0.000000    0.894662    2.000000 Uiso  1.0000
 Li2_B2_n448 Li+    0.500000    0.500000    0.894662    2.000000 Uiso  0.3650
 Li1_B2_n449 Li+    0.000000    0.000000    0.896662    2.000000 Uiso  1.0000
 Li2_B2_n449 Li+    0.500000    0.500000    0.896662    2.000000 Uiso  0.3650
 Li1_B2_n450 Li+    0.000000    0.000000    0.898662    2.000000 Uiso  1.0000
 Li2_B2_n450 Li+    0.500000    0.500000    0.898662    2.000000 Uiso  0.3650
 Li1_B2_n451 Li+    0.000000    0.000000    0.900662    2.000000 Uiso  1.0000
 Li2_B2_n451 Li+    0.500000    0.500000    0.900662    2.000000 Uiso  0.3650
 Li1_B2_n452 Li+    0.000000    0.000000    0.902662    2.000000 Uiso  1.0000
 Li2_B2_n452 Li+    0.500000    0.500000    0.902662    2.000000 Uiso  0.3650
 Li1_B2_n453 Li+    0.000000    0.000000    0.904662    2.000000 Uiso  1.0000
 Li2_B2_n453 Li+    0.500000    0.500000    0.904662    2.000000 Uiso  0.3650
 Li1_B2_n454 Li+    0.000000    0.000000    0.906662    2.000000 Uiso  1.0000
 Li2_B2_n454 Li+    0.500000    0.500000    0.906662    2.000000 Uiso  0.3650
 Li1_B2_n455 Li+    0.000000    0.000000    0.908662    2.000000 Uiso  1.0000
 Li2_B2_n455 Li+    0.500000    0.500000    0.908662    2.000000 Uiso  0.3650
 Li1_B2_n456 Li+    0.000000    0.000000    0.910662    2.000000 Uiso  1.0000
 Li2_B2_n456 Li+    0.500000    0.500000    0.910662    2.000000 Uiso  0.3650
 Li1_B2_n457 Li+    0.000000    0.000000    0.912662    2.000000 Uiso  1.0000
 Li2_B2_n457 Li+    0.500000    0.500000    0.912662    2.000000 Uiso  0.3650
 Li1_B2_n458 Li+    0.000000    0.000000    0.914662    2.000000 Uiso  1.0000
 Li2_B2_n458 Li+    0.500000    0.500000    0.914662    2.000000 Uiso  0.3650
 Li1_B2_n459 Li+    0.000000    0.000000    0.916662    2.000000 Uiso  1.0000
 Li2_B2_n459 Li+    0.500000    0.500000    0.916662    2.000000 Uiso  0.3650
 Li1_B2_n460 Li+    0.000000    0.000000    0.918662    2.000000 Uiso  1.0000
 Li2_B2_n460 Li+    0.500000    0.500000    0.918662    2.000000 Uiso  0.3650
 Li1_B2_n461 Li+    0.000000    0.000000    0.920662    2.000000 Uiso  1.0000
 Li2_B2_n461 Li+    0.500000    0.500000    0.920662    2.000000 Uiso  0.3650
 Li1_B2_n462 Li+    0.000000    0.000000    0.922662    2.000000 Uiso  1.0000
 Li2_B2_n462 Li+    0.500000    0.500000    0.922662    2.000000 Uiso  0.3650
 Li1_B2_n463 Li+    0.000000    0.000000    0.924662    2.000000 Uiso  1.0000
 Li2_B2_n463 Li+    0.500000    0.500000    0.924662    2.000000 Uiso  0.3650
 Li1_B2_n464 Li+    0.000000    0.000000    0.926662    2.000000 Uiso  1.0000
 Li2_B2_n464 Li+    0.500000    0.500000    0.926662    2.000000 Uiso  0.3650
 Li1_B2_n465 Li+    0.000000    0.000000    0.928662    2.000000 Uiso  1.0000
 Li2_B2_n465 Li+    0.500000    0.500000    0.928662    2.000000 Uiso  0.3650
 Li1_B2_n466 Li+    0.000000    0.000000    0.930662    2.000000 Uiso  1.0000
 Li2_B2_n466 Li+    0.500000    0.500000    0.930662    2.000000 Uiso  0.3650
 Li1_B2_n467 Li+    0.000000    0.000000    0.932662    2.000000 Uiso  1.0000
 Li2_B2_n467 Li+    0.500000    0.500000    0.932662    2.000000 Uiso  0.3650
 Li1_B2_n468 Li+    0.000000    0.000000    0.934662    2.000000 Uiso  1.0000
 Li2_B2_n468 Li+    0.500000    0.500000    0.934662    2.000000 Uiso  0.3650
 Li1_B2_n469 Li+    0.000000    0.000000    0.936662    2.000000 Uiso  1.0000
 Li2_B2_n469 Li+    0.500000    0.500000    0.936662    2.000000 Uiso  0.3650
 Li1_B2_n470 Li+    0.000000    0.000000    0.938662    2.000000 Uiso  1.0000
 Li2_B2_n470 Li+    0.500000    0.500000    0.938662    2.000000 Uiso  0.3650
 Li1_B2_n471 Li+    0.000000    0.000000    0.940662    2.000000 Uiso  1.0000
 Li2_B2_n471 Li+    0.500000    0.500000    0.940662    2.000000 Uiso  0.3650
 Li1_B2_n472 Li+    0.000000    0.000000    0.942662    2.000000 Uiso  1.0000
 Li2_B2_n472 Li+    0.500000    0.500000    0.942662    2.000000 Uiso  0.3650
 Li1_B2_n473 Li+    0.000000    0.000000    0.944662    2.000000 Uiso  1.0000
 Li2_B2_n473 Li+    0.500000    0.500000    0.944662    2.000000 Uiso  0.3650
 Li1_B2_n474 Li+    0.000000    0.000000    0.946662    2.000000 Uiso  1.0000
 Li2_B2_n474 Li+    0.500000    0.500000    0.946662    2.000000 Uiso  0.3650
 Li1_B2_n475 Li+    0.000000    0.000000    0.948662    2.000000 Uiso  1.0000
 Li2_B2_n475 Li+    0.500000    0.500000    0.948662    2.000000 Uiso  0.3650
 Li1_B2_n476 Li+    0.000000    0.000000    0.950662    2.000000 Uiso  1.0000
 Li2_B2_n476 Li+    0.500000    0.500000    0.950662    2.000000 Uiso  0.3650
 Li1_B2_n477 Li+    0.000000    0.000000    0.952662    2.000000 Uiso  1.0000
 Li2_B2_n477 Li+    0.500000    0.500000    0.952662    2.000000 Uiso  0.3650
 Li1_B2_n478 Li+    0.000000    0.000000    0.954662    2.000000 Uiso  1.0000
 Li2_B2_n478 Li+    0.500000    0.500000    0.954662    2.000000 Uiso  0.3650
 Li1_B2_n479 Li+    0.000000    0.000000    0.956662    2.000000 Uiso  1.0000
 Li2_B2_n479 Li+    0.500000    0.500000    0.956662    2.000000 Uiso  0.3650
 Li1_B2_n480 Li+    0.000000    0.000000    0.958662    2.000000 Uiso  1.0000
 Li2_B2_n480 Li+    0.500000    0.500000    0.958662    2.000000 Uiso  0.3650
 Li1_B2_n481 Li+    0.000000    0.000000    0.960662    2.000000 Uiso  1.0000
 Li2_B2_n481 Li+    0.500000    0.500000    0.960662    2.000000 Uiso  0.3650
 Li1_B2_n482 Li+    0.000000    0.000000    0.962662    2.000000 Uiso  1.0000
 Li2_B2_n482 Li+    0.500000    0.500000    0.962662    2.000000 Uiso  0.3650
 Li1_B2_n483 Li+    0.000000    0.000000    0.964662    2.000000 Uiso  1.0000
 Li2_B2_n483 Li+    0.500000    0.500000    0.964662    2.000000 Uiso  0.3650
 Li1_B2_n484 Li+    0.000000    0.000000    0.966662    2.000000 Uiso  1.0000
 Li2_B2_n484 Li+    0.500000    0.500000    0.966662    2.000000 Uiso  0.3650
 Li1_B2_n485 Li+    0.000000    0.000000    0.968662    2.000000 Uiso  1.0000
 Li2_B2_n485 Li+    0.500000    0.500000    0.968662    2.000000 Uiso  0.3650
 Li1_B2_n486 Li+    0.000000    0.000000    0.970662    2.000000 Uiso  1.0000
 Li2_B2_n486 Li+    0.500000    0.500000    0.970662    2.000000 Uiso  0.3650
 Li1_B2_n487 Li+    0.000000    0.000000    0.972662    2.000000 Uiso  1.0000
 Li2_B2_n487 Li+    0.500000    0.500000    0.972662    2.000000 Uiso  0.3650
 Li1_B2_n488 Li+    0.000000    0.000000    0.974662    2.000000 Uiso  1.0000
 Li2_B2_n488 Li+    0.500000    0.500000    0.974662    2.000000 Uiso  0.3650
 Li1_B2_n489 Li+    0.000000    0.000000    0.976662    2.000000 Uiso  1.0000
 Li2_B2_n489 Li+    0.500000    0.500000    0.976662    2.000000 Uiso  0.3650
 Li1_B2_n490 Li+    0.000000    0.000000    0.978662    2.000000 Uiso  1.0000
 Li2_B2_n490 Li+    0.500000    0.500000    0.978662    2.000000 Uiso  0.3650
 Li1_B2_n491 Li+    0.000000    0.000000    0.980662    2.000000 Uiso  1.0000
 Li2_B2_n491 Li+    0.500000    0.500000    0.980662    2.000000 Uiso  0.3650
 Li1_B2_n492 Li+    0.000000    0.000000    0.982662    2.000000 Uiso  1.0000
 Li2_B2_n492 Li+    0.500000    0.500000    0.982662    2.000000 Uiso  0.3650
 Li1_B2_n493 Li+    0.000000    0.000000    0.984662    2.000000 Uiso  1.0000
 Li2_B2_n493 Li+    0.500000    0.500000    0.984662    2.000000 Uiso  0.3650
 Li1_B2_n494 Li+    0.000000    0.000000    0.986662    2.000000 Uiso  1.0000
 Li2_B2_n494 Li+    0.500000    0.500000    0.986662    2.000000 Uiso  0.3650
 Li1_B2_n495 Li+    0.000000    0.000000    0.988662    2.000000 Uiso  1.0000
 Li2_B2_n495 Li+    0.500000    0.500000    0.988662    2.000000 Uiso  0.3650
 Li1_B2_n496 Li+    0.000000    0.000000    0.990662    2.000000 Uiso  1.0000
 Li2_B2_n496 Li+    0.500000    0.500000    0.990662    2.000000 Uiso  0.3650
 Li1_B2_n497 Li+    0.000000    0.000000    0.992662    2.000000 Uiso  1.0000
 Li2_B2_n497 Li+    0.500000    0.500000    0.992662    2.000000 Uiso  0.3650
 Li1_B2_n498 Li+    0.000000    0.000000    0.994662    2.000000 Uiso  1.0000
 Li2_B2_n498 Li+    0.500000    0.500000    0.994662    2.000000 Uiso  0.3650
 Li1_B2_n499 Li+    0.000000    0.000000    0.996662    2.000000 Uiso  1.0000
 Li2_B2_n499 Li+    0.500000    0.500000    0.996662    2.000000 Uiso  0.3650
 Li1_B2_n500 Li+    0.000000    0.000000    0.998662    2.000000 Uiso  1.0000
 Li2_B2_n500 Li+    0.500000    0.500000    0.998662    2.000000 Uiso  0.3650
 Sc1_A2_n1 Sc3+    0.500000    0.000000    0.001000    2.000000 Uiso  1.0000
 Cl1_A2_n1 Cl1-    0.742100    0.768700    0.001000    2.000000 Uiso  1.0000
 Cl2_A2_n1 Cl1-    0.257900    0.231300    0.001000    2.000000 Uiso  1.0000
 Cl3_A2_n1 Cl1-    0.738700    0.237100    0.001322    2.000000 Uiso  1.0000
 Cl4_A2_n1 Cl1-    0.261300    0.762900    0.001322    2.000000 Uiso  1.0000
 Cl5_A2_n1 Cl1-    0.738700    0.237100    0.000678    2.000000 Uiso  1.0000
 Cl6_A2_n1 Cl1-    0.261300    0.762900    0.000678    2.000000 Uiso  1.0000
 Li3_A2_n1 Li+    0.000000    0.500000    0.001000    2.000000 Uiso  0.2700
 Sc1_A2_n2 Sc3+    0.500000    0.000000    0.003000    2.000000 Uiso  1.0000
 Cl1_A2_n2 Cl1-    0.742100    0.768700    0.003000    2.000000 Uiso  1.0000
 Cl2_A2_n2 Cl1-    0.257900    0.231300    0.003000    2.000000 Uiso  1.0000
 Cl3_A2_n2 Cl1-    0.738700    0.237100    0.003322    2.000000 Uiso  1.0000
 Cl4_A2_n2 Cl1-    0.261300    0.762900    0.003322    2.000000 Uiso  1.0000
 Cl5_A2_n2 Cl1-    0.738700    0.237100    0.002678    2.000000 Uiso  1.0000
 Cl6_A2_n2 Cl1-    0.261300    0.762900    0.002678    2.000000 Uiso  1.0000
 Li3_A2_n2 Li+    0.000000    0.500000    0.003000    2.000000 Uiso  0.2700
 Sc1_A2_n3 Sc3+    0.500000    0.000000    0.005000    2.000000 Uiso  1.0000
 Cl1_A2_n3 Cl1-    0.742100    0.768700    0.005000    2.000000 Uiso  1.0000
 Cl2_A2_n3 Cl1-    0.257900    0.231300    0.005000    2.000000 Uiso  1.0000
 Cl3_A2_n3 Cl1-    0.738700    0.237100    0.005322    2.000000 Uiso  1.0000
 Cl4_A2_n3 Cl1-    0.261300    0.762900    0.005322    2.000000 Uiso  1.0000
 Cl5_A2_n3 Cl1-    0.738700    0.237100    0.004678    2.000000 Uiso  1.0000
 Cl6_A2_n3 Cl1-    0.261300    0.762900    0.004678    2.000000 Uiso  1.0000
 Li3_A2_n3 Li+    0.000000    0.500000    0.005000    2.000000 Uiso  0.2700
 Sc1_A2_n4 Sc3+    0.500000    0.000000    0.007000    2.000000 Uiso  1.0000
 Cl1_A2_n4 Cl1-    0.742100    0.768700    0.007000    2.000000 Uiso  1.0000
 Cl2_A2_n4 Cl1-    0.257900    0.231300    0.007000    2.000000 Uiso  1.0000
 Cl3_A2_n4 Cl1-    0.738700    0.237100    0.007322    2.000000 Uiso  1.0000
 Cl4_A2_n4 Cl1-    0.261300    0.762900    0.007322    2.000000 Uiso  1.0000
 Cl5_A2_n4 Cl1-    0.738700    0.237100    0.006678    2.000000 Uiso  1.0000
 Cl6_A2_n4 Cl1-    0.261300    0.762900    0.006678    2.000000 Uiso  1.0000
 Li3_A2_n4 Li+    0.000000    0.500000    0.007000    2.000000 Uiso  0.2700
 Sc1_A2_n5 Sc3+    0.500000    0.000000    0.009000    2.000000 Uiso  1.0000
 Cl1_A2_n5 Cl1-    0.742100    0.768700    0.009000    2.000000 Uiso  1.0000
 Cl2_A2_n5 Cl1-    0.257900    0.231300    0.009000    2.000000 Uiso  1.0000
 Cl3_A2_n5 Cl1-    0.738700    0.237100    0.009322    2.000000 Uiso  1.0000
 Cl4_A2_n5 Cl1-    0.261300    0.762900    0.009322    2.000000 Uiso  1.0000
 Cl5_A2_n5 Cl1-    0.738700    0.237100    0.008678    2.000000 Uiso  1.0000
 Cl6_A2_n5 Cl1-    0.261300    0.762900    0.008678    2.000000 Uiso  1.0000
 Li3_A2_n5 Li+    0.000000    0.500000    0.009000    2.000000 Uiso  0.2700
 Sc1_A2_n6 Sc3+    0.500000    0.000000    0.011000    2.000000 Uiso  1.0000
 Cl1_A2_n6 Cl1-    0.742100    0.768700    0.011000    2.000000 Uiso  1.0000
 Cl2_A2_n6 Cl1-    0.257900    0.231300    0.011000    2.000000 Uiso  1.0000
 Cl3_A2_n6 Cl1-    0.738700    0.237100    0.011322    2.000000 Uiso  1.0000
 Cl4_A2_n6 Cl1-    0.261300    0.762900    0.011322    2.000000 Uiso  1.0000
 Cl5_A2_n6 Cl1-    0.738700    0.237100    0.010678    2.000000 Uiso  1.0000
 Cl6_A2_n6 Cl1-    0.261300    0.762900    0.010678    2.000000 Uiso  1.0000
 Li3_A2_n6 Li+    0.000000    0.500000    0.011000    2.000000 Uiso  0.2700
 Sc1_A2_n7 Sc3+    0.500000    0.000000    0.013000    2.000000 Uiso  1.0000
 Cl1_A2_n7 Cl1-    0.742100    0.768700    0.013000    2.000000 Uiso  1.0000
 Cl2_A2_n7 Cl1-    0.257900    0.231300    0.013000    2.000000 Uiso  1.0000
 Cl3_A2_n7 Cl1-    0.738700    0.237100    0.013322    2.000000 Uiso  1.0000
 Cl4_A2_n7 Cl1-    0.261300    0.762900    0.013322    2.000000 Uiso  1.0000
 Cl5_A2_n7 Cl1-    0.738700    0.237100    0.012678    2.000000 Uiso  1.0000
 Cl6_A2_n7 Cl1-    0.261300    0.762900    0.012678    2.000000 Uiso  1.0000
 Li3_A2_n7 Li+    0.000000    0.500000    0.013000    2.000000 Uiso  0.2700
 Sc1_A2_n8 Sc3+    0.500000    0.000000    0.015000    2.000000 Uiso  1.0000
 Cl1_A2_n8 Cl1-    0.742100    0.768700    0.015000    2.000000 Uiso  1.0000
 Cl2_A2_n8 Cl1-    0.257900    0.231300    0.015000    2.000000 Uiso  1.0000
 Cl3_A2_n8 Cl1-    0.738700    0.237100    0.015322    2.000000 Uiso  1.0000
 Cl4_A2_n8 Cl1-    0.261300    0.762900    0.015322    2.000000 Uiso  1.0000
 Cl5_A2_n8 Cl1-    0.738700    0.237100    0.014678    2.000000 Uiso  1.0000
 Cl6_A2_n8 Cl1-    0.261300    0.762900    0.014678    2.000000 Uiso  1.0000
 Li3_A2_n8 Li+    0.000000    0.500000    0.015000    2.000000 Uiso  0.2700
 Sc1_A2_n9 Sc3+    0.500000    0.000000    0.017000    2.000000 Uiso  1.0000
 Cl1_A2_n9 Cl1-    0.742100    0.768700    0.017000    2.000000 Uiso  1.0000
 Cl2_A2_n9 Cl1-    0.257900    0.231300    0.017000    2.000000 Uiso  1.0000
 Cl3_A2_n9 Cl1-    0.738700    0.237100    0.017322    2.000000 Uiso  1.0000
 Cl4_A2_n9 Cl1-    0.261300    0.762900    0.017322    2.000000 Uiso  1.0000
 Cl5_A2_n9 Cl1-    0.738700    0.237100    0.016678    2.000000 Uiso  1.0000
 Cl6_A2_n9 Cl1-    0.261300    0.762900    0.016678    2.000000 Uiso  1.0000
 Li3_A2_n9 Li+    0.000000    0.500000    0.017000    2.000000 Uiso  0.2700
 Sc1_A2_n10 Sc3+    0.500000    0.000000    0.019000    2.000000 Uiso  1.0000
 Cl1_A2_n10 Cl1-    0.742100    0.768700    0.019000    2.000000 Uiso  1.0000
 Cl2_A2_n10 Cl1-    0.257900    0.231300    0.019000    2.000000 Uiso  1.0000
 Cl3_A2_n10 Cl1-    0.738700    0.237100    0.019322    2.000000 Uiso  1.0000
 Cl4_A2_n10 Cl1-    0.261300    0.762900    0.019322    2.000000 Uiso  1.0000
 Cl5_A2_n10 Cl1-    0.738700    0.237100    0.018678    2.000000 Uiso  1.0000
 Cl6_A2_n10 Cl1-    0.261300    0.762900    0.018678    2.000000 Uiso  1.0000
 Li3_A2_n10 Li+    0.000000    0.500000    0.019000    2.000000 Uiso  0.2700
 Sc1_A2_n11 Sc3+    0.500000    0.000000    0.021000    2.000000 Uiso  1.0000
 Cl1_A2_n11 Cl1-    0.742100    0.768700    0.021000    2.000000 Uiso  1.0000
 Cl2_A2_n11 Cl1-    0.257900    0.231300    0.021000    2.000000 Uiso  1.0000
 Cl3_A2_n11 Cl1-    0.738700    0.237100    0.021322    2.000000 Uiso  1.0000
 Cl4_A2_n11 Cl1-    0.261300    0.762900    0.021322    2.000000 Uiso  1.0000
 Cl5_A2_n11 Cl1-    0.738700    0.237100    0.020678    2.000000 Uiso  1.0000
 Cl6_A2_n11 Cl1-    0.261300    0.762900    0.020678    2.000000 Uiso  1.0000
 Li3_A2_n11 Li+    0.000000    0.500000    0.021000    2.000000 Uiso  0.2700
 Sc1_A2_n12 Sc3+    0.500000    0.000000    0.023000    2.000000 Uiso  1.0000
 Cl1_A2_n12 Cl1-    0.742100    0.768700    0.023000    2.000000 Uiso  1.0000
 Cl2_A2_n12 Cl1-    0.257900    0.231300    0.023000    2.000000 Uiso  1.0000
 Cl3_A2_n12 Cl1-    0.738700    0.237100    0.023322    2.000000 Uiso  1.0000
 Cl4_A2_n12 Cl1-    0.261300    0.762900    0.023322    2.000000 Uiso  1.0000
 Cl5_A2_n12 Cl1-    0.738700    0.237100    0.022678    2.000000 Uiso  1.0000
 Cl6_A2_n12 Cl1-    0.261300    0.762900    0.022678    2.000000 Uiso  1.0000
 Li3_A2_n12 Li+    0.000000    0.500000    0.023000    2.000000 Uiso  0.2700
 Sc1_A2_n13 Sc3+    0.500000    0.000000    0.025000    2.000000 Uiso  1.0000
 Cl1_A2_n13 Cl1-    0.742100    0.768700    0.025000    2.000000 Uiso  1.0000
 Cl2_A2_n13 Cl1-    0.257900    0.231300    0.025000    2.000000 Uiso  1.0000
 Cl3_A2_n13 Cl1-    0.738700    0.237100    0.025322    2.000000 Uiso  1.0000
 Cl4_A2_n13 Cl1-    0.261300    0.762900    0.025322    2.000000 Uiso  1.0000
 Cl5_A2_n13 Cl1-    0.738700    0.237100    0.024678    2.000000 Uiso  1.0000
 Cl6_A2_n13 Cl1-    0.261300    0.762900    0.024678    2.000000 Uiso  1.0000
 Li3_A2_n13 Li+    0.000000    0.500000    0.025000    2.000000 Uiso  0.2700
 Sc1_A2_n14 Sc3+    0.500000    0.000000    0.027000    2.000000 Uiso  1.0000
 Cl1_A2_n14 Cl1-    0.742100    0.768700    0.027000    2.000000 Uiso  1.0000
 Cl2_A2_n14 Cl1-    0.257900    0.231300    0.027000    2.000000 Uiso  1.0000
 Cl3_A2_n14 Cl1-    0.738700    0.237100    0.027322    2.000000 Uiso  1.0000
 Cl4_A2_n14 Cl1-    0.261300    0.762900    0.027322    2.000000 Uiso  1.0000
 Cl5_A2_n14 Cl1-    0.738700    0.237100    0.026678    2.000000 Uiso  1.0000
 Cl6_A2_n14 Cl1-    0.261300    0.762900    0.026678    2.000000 Uiso  1.0000
 Li3_A2_n14 Li+    0.000000    0.500000    0.027000    2.000000 Uiso  0.2700
 Sc1_A2_n15 Sc3+    0.500000    0.000000    0.029000    2.000000 Uiso  1.0000
 Cl1_A2_n15 Cl1-    0.742100    0.768700    0.029000    2.000000 Uiso  1.0000
 Cl2_A2_n15 Cl1-    0.257900    0.231300    0.029000    2.000000 Uiso  1.0000
 Cl3_A2_n15 Cl1-    0.738700    0.237100    0.029322    2.000000 Uiso  1.0000
 Cl4_A2_n15 Cl1-    0.261300    0.762900    0.029322    2.000000 Uiso  1.0000
 Cl5_A2_n15 Cl1-    0.738700    0.237100    0.028678    2.000000 Uiso  1.0000
 Cl6_A2_n15 Cl1-    0.261300    0.762900    0.028678    2.000000 Uiso  1.0000
 Li3_A2_n15 Li+    0.000000    0.500000    0.029000    2.000000 Uiso  0.2700
 Sc1_A2_n16 Sc3+    0.500000    0.000000    0.031000    2.000000 Uiso  1.0000
 Cl1_A2_n16 Cl1-    0.742100    0.768700    0.031000    2.000000 Uiso  1.0000
 Cl2_A2_n16 Cl1-    0.257900    0.231300    0.031000    2.000000 Uiso  1.0000
 Cl3_A2_n16 Cl1-    0.738700    0.237100    0.031322    2.000000 Uiso  1.0000
 Cl4_A2_n16 Cl1-    0.261300    0.762900    0.031322    2.000000 Uiso  1.0000
 Cl5_A2_n16 Cl1-    0.738700    0.237100    0.030678    2.000000 Uiso  1.0000
 Cl6_A2_n16 Cl1-    0.261300    0.762900    0.030678    2.000000 Uiso  1.0000
 Li3_A2_n16 Li+    0.000000    0.500000    0.031000    2.000000 Uiso  0.2700
 Sc1_A2_n17 Sc3+    0.500000    0.000000    0.033000    2.000000 Uiso  1.0000
 Cl1_A2_n17 Cl1-    0.742100    0.768700    0.033000    2.000000 Uiso  1.0000
 Cl2_A2_n17 Cl1-    0.257900    0.231300    0.033000    2.000000 Uiso  1.0000
 Cl3_A2_n17 Cl1-    0.738700    0.237100    0.033322    2.000000 Uiso  1.0000
 Cl4_A2_n17 Cl1-    0.261300    0.762900    0.033322    2.000000 Uiso  1.0000
 Cl5_A2_n17 Cl1-    0.738700    0.237100    0.032678    2.000000 Uiso  1.0000
 Cl6_A2_n17 Cl1-    0.261300    0.762900    0.032678    2.000000 Uiso  1.0000
 Li3_A2_n17 Li+    0.000000    0.500000    0.033000    2.000000 Uiso  0.2700
 Sc1_A2_n18 Sc3+    0.500000    0.000000    0.035000    2.000000 Uiso  1.0000
 Cl1_A2_n18 Cl1-    0.742100    0.768700    0.035000    2.000000 Uiso  1.0000
 Cl2_A2_n18 Cl1-    0.257900    0.231300    0.035000    2.000000 Uiso  1.0000
 Cl3_A2_n18 Cl1-    0.738700    0.237100    0.035322    2.000000 Uiso  1.0000
 Cl4_A2_n18 Cl1-    0.261300    0.762900    0.035322    2.000000 Uiso  1.0000
 Cl5_A2_n18 Cl1-    0.738700    0.237100    0.034678    2.000000 Uiso  1.0000
 Cl6_A2_n18 Cl1-    0.261300    0.762900    0.034678    2.000000 Uiso  1.0000
 Li3_A2_n18 Li+    0.000000    0.500000    0.035000    2.000000 Uiso  0.2700
 Sc1_A2_n19 Sc3+    0.500000    0.000000    0.037000    2.000000 Uiso  1.0000
 Cl1_A2_n19 Cl1-    0.742100    0.768700    0.037000    2.000000 Uiso  1.0000
 Cl2_A2_n19 Cl1-    0.257900    0.231300    0.037000    2.000000 Uiso  1.0000
 Cl3_A2_n19 Cl1-    0.738700    0.237100    0.037322    2.000000 Uiso  1.0000
 Cl4_A2_n19 Cl1-    0.261300    0.762900    0.037322    2.000000 Uiso  1.0000
 Cl5_A2_n19 Cl1-    0.738700    0.237100    0.036678    2.000000 Uiso  1.0000
 Cl6_A2_n19 Cl1-    0.261300    0.762900    0.036678    2.000000 Uiso  1.0000
 Li3_A2_n19 Li+    0.000000    0.500000    0.037000    2.000000 Uiso  0.2700
 Sc1_A2_n20 Sc3+    0.500000    0.000000    0.039000    2.000000 Uiso  1.0000
 Cl1_A2_n20 Cl1-    0.742100    0.768700    0.039000    2.000000 Uiso  1.0000
 Cl2_A2_n20 Cl1-    0.257900    0.231300    0.039000    2.000000 Uiso  1.0000
 Cl3_A2_n20 Cl1-    0.738700    0.237100    0.039322    2.000000 Uiso  1.0000
 Cl4_A2_n20 Cl1-    0.261300    0.762900    0.039322    2.000000 Uiso  1.0000
 Cl5_A2_n20 Cl1-    0.738700    0.237100    0.038678    2.000000 Uiso  1.0000
 Cl6_A2_n20 Cl1-    0.261300    0.762900    0.038678    2.000000 Uiso  1.0000
 Li3_A2_n20 Li+    0.000000    0.500000    0.039000    2.000000 Uiso  0.2700
 Sc1_A2_n21 Sc3+    0.500000    0.000000    0.041000    2.000000 Uiso  1.0000
 Cl1_A2_n21 Cl1-    0.742100    0.768700    0.041000    2.000000 Uiso  1.0000
 Cl2_A2_n21 Cl1-    0.257900    0.231300    0.041000    2.000000 Uiso  1.0000
 Cl3_A2_n21 Cl1-    0.738700    0.237100    0.041322    2.000000 Uiso  1.0000
 Cl4_A2_n21 Cl1-    0.261300    0.762900    0.041322    2.000000 Uiso  1.0000
 Cl5_A2_n21 Cl1-    0.738700    0.237100    0.040678    2.000000 Uiso  1.0000
 Cl6_A2_n21 Cl1-    0.261300    0.762900    0.040678    2.000000 Uiso  1.0000
 Li3_A2_n21 Li+    0.000000    0.500000    0.041000    2.000000 Uiso  0.2700
 Sc1_A2_n22 Sc3+    0.500000    0.000000    0.043000    2.000000 Uiso  1.0000
 Cl1_A2_n22 Cl1-    0.742100    0.768700    0.043000    2.000000 Uiso  1.0000
 Cl2_A2_n22 Cl1-    0.257900    0.231300    0.043000    2.000000 Uiso  1.0000
 Cl3_A2_n22 Cl1-    0.738700    0.237100    0.043322    2.000000 Uiso  1.0000
 Cl4_A2_n22 Cl1-    0.261300    0.762900    0.043322    2.000000 Uiso  1.0000
 Cl5_A2_n22 Cl1-    0.738700    0.237100    0.042678    2.000000 Uiso  1.0000
 Cl6_A2_n22 Cl1-    0.261300    0.762900    0.042678    2.000000 Uiso  1.0000
 Li3_A2_n22 Li+    0.000000    0.500000    0.043000    2.000000 Uiso  0.2700
 Sc1_A2_n23 Sc3+    0.500000    0.000000    0.045000    2.000000 Uiso  1.0000
 Cl1_A2_n23 Cl1-    0.742100    0.768700    0.045000    2.000000 Uiso  1.0000
 Cl2_A2_n23 Cl1-    0.257900    0.231300    0.045000    2.000000 Uiso  1.0000
 Cl3_A2_n23 Cl1-    0.738700    0.237100    0.045322    2.000000 Uiso  1.0000
 Cl4_A2_n23 Cl1-    0.261300    0.762900    0.045322    2.000000 Uiso  1.0000
 Cl5_A2_n23 Cl1-    0.738700    0.237100    0.044678    2.000000 Uiso  1.0000
 Cl6_A2_n23 Cl1-    0.261300    0.762900    0.044678    2.000000 Uiso  1.0000
 Li3_A2_n23 Li+    0.000000    0.500000    0.045000    2.000000 Uiso  0.2700
 Sc1_A2_n24 Sc3+    0.500000    0.000000    0.047000    2.000000 Uiso  1.0000
 Cl1_A2_n24 Cl1-    0.742100    0.768700    0.047000    2.000000 Uiso  1.0000
 Cl2_A2_n24 Cl1-    0.257900    0.231300    0.047000    2.000000 Uiso  1.0000
 Cl3_A2_n24 Cl1-    0.738700    0.237100    0.047322    2.000000 Uiso  1.0000
 Cl4_A2_n24 Cl1-    0.261300    0.762900    0.047322    2.000000 Uiso  1.0000
 Cl5_A2_n24 Cl1-    0.738700    0.237100    0.046678    2.000000 Uiso  1.0000
 Cl6_A2_n24 Cl1-    0.261300    0.762900    0.046678    2.000000 Uiso  1.0000
 Li3_A2_n24 Li+    0.000000    0.500000    0.047000    2.000000 Uiso  0.2700
 Sc1_A2_n25 Sc3+    0.500000    0.000000    0.049000    2.000000 Uiso  1.0000
 Cl1_A2_n25 Cl1-    0.742100    0.768700    0.049000    2.000000 Uiso  1.0000
 Cl2_A2_n25 Cl1-    0.257900    0.231300    0.049000    2.000000 Uiso  1.0000
 Cl3_A2_n25 Cl1-    0.738700    0.237100    0.049322    2.000000 Uiso  1.0000
 Cl4_A2_n25 Cl1-    0.261300    0.762900    0.049322    2.000000 Uiso  1.0000
 Cl5_A2_n25 Cl1-    0.738700    0.237100    0.048678    2.000000 Uiso  1.0000
 Cl6_A2_n25 Cl1-    0.261300    0.762900    0.048678    2.000000 Uiso  1.0000
 Li3_A2_n25 Li+    0.000000    0.500000    0.049000    2.000000 Uiso  0.2700
 Sc1_A2_n26 Sc3+    0.500000    0.000000    0.051000    2.000000 Uiso  1.0000
 Cl1_A2_n26 Cl1-    0.742100    0.768700    0.051000    2.000000 Uiso  1.0000
 Cl2_A2_n26 Cl1-    0.257900    0.231300    0.051000    2.000000 Uiso  1.0000
 Cl3_A2_n26 Cl1-    0.738700    0.237100    0.051322    2.000000 Uiso  1.0000
 Cl4_A2_n26 Cl1-    0.261300    0.762900    0.051322    2.000000 Uiso  1.0000
 Cl5_A2_n26 Cl1-    0.738700    0.237100    0.050678    2.000000 Uiso  1.0000
 Cl6_A2_n26 Cl1-    0.261300    0.762900    0.050678    2.000000 Uiso  1.0000
 Li3_A2_n26 Li+    0.000000    0.500000    0.051000    2.000000 Uiso  0.2700
 Sc1_A2_n27 Sc3+    0.500000    0.000000    0.053000    2.000000 Uiso  1.0000
 Cl1_A2_n27 Cl1-    0.742100    0.768700    0.053000    2.000000 Uiso  1.0000
 Cl2_A2_n27 Cl1-    0.257900    0.231300    0.053000    2.000000 Uiso  1.0000
 Cl3_A2_n27 Cl1-    0.738700    0.237100    0.053322    2.000000 Uiso  1.0000
 Cl4_A2_n27 Cl1-    0.261300    0.762900    0.053322    2.000000 Uiso  1.0000
 Cl5_A2_n27 Cl1-    0.738700    0.237100    0.052678    2.000000 Uiso  1.0000
 Cl6_A2_n27 Cl1-    0.261300    0.762900    0.052678    2.000000 Uiso  1.0000
 Li3_A2_n27 Li+    0.000000    0.500000    0.053000    2.000000 Uiso  0.2700
 Sc1_A2_n28 Sc3+    0.500000    0.000000    0.055000    2.000000 Uiso  1.0000
 Cl1_A2_n28 Cl1-    0.742100    0.768700    0.055000    2.000000 Uiso  1.0000
 Cl2_A2_n28 Cl1-    0.257900    0.231300    0.055000    2.000000 Uiso  1.0000
 Cl3_A2_n28 Cl1-    0.738700    0.237100    0.055322    2.000000 Uiso  1.0000
 Cl4_A2_n28 Cl1-    0.261300    0.762900    0.055322    2.000000 Uiso  1.0000
 Cl5_A2_n28 Cl1-    0.738700    0.237100    0.054678    2.000000 Uiso  1.0000
 Cl6_A2_n28 Cl1-    0.261300    0.762900    0.054678    2.000000 Uiso  1.0000
 Li3_A2_n28 Li+    0.000000    0.500000    0.055000    2.000000 Uiso  0.2700
 Sc1_A2_n29_fault Sc3+    0.500000    0.333330    0.057000    2.000000 Uiso  1.0000
 Cl1_A2_n29_fault Cl1-    0.742100    1.102030    0.057000    2.000000 Uiso  1.0000
 Cl2_A2_n29_fault Cl1-    0.257900    0.564630    0.057000    2.000000 Uiso  1.0000
 Cl3_A2_n29_fault Cl1-    0.738700    0.570430    0.057322    2.000000 Uiso  1.0000
 Cl4_A2_n29_fault Cl1-    0.261300    1.096230    0.057322    2.000000 Uiso  1.0000
 Cl5_A2_n29_fault Cl1-    0.738700    0.570430    0.056678    2.000000 Uiso  1.0000
 Cl6_A2_n29_fault Cl1-    0.261300    1.096230    0.056678    2.000000 Uiso  1.0000
 Li3_A2_n29_fault Li+    0.000000    0.833330    0.057000    2.000000 Uiso  0.2700
 Sc1_A2_n30 Sc3+    0.500000    0.000000    0.059000    2.000000 Uiso  1.0000
 Cl1_A2_n30 Cl1-    0.742100    0.768700    0.059000    2.000000 Uiso  1.0000
 Cl2_A2_n30 Cl1-    0.257900    0.231300    0.059000    2.000000 Uiso  1.0000
 Cl3_A2_n30 Cl1-    0.738700    0.237100    0.059322    2.000000 Uiso  1.0000
 Cl4_A2_n30 Cl1-    0.261300    0.762900    0.059322    2.000000 Uiso  1.0000
 Cl5_A2_n30 Cl1-    0.738700    0.237100    0.058678    2.000000 Uiso  1.0000
 Cl6_A2_n30 Cl1-    0.261300    0.762900    0.058678    2.000000 Uiso  1.0000
 Li3_A2_n30 Li+    0.000000    0.500000    0.059000    2.000000 Uiso  0.2700
 Sc1_A2_n31 Sc3+    0.500000    0.000000    0.061000    2.000000 Uiso  1.0000
 Cl1_A2_n31 Cl1-    0.742100    0.768700    0.061000    2.000000 Uiso  1.0000
 Cl2_A2_n31 Cl1-    0.257900    0.231300    0.061000    2.000000 Uiso  1.0000
 Cl3_A2_n31 Cl1-    0.738700    0.237100    0.061322    2.000000 Uiso  1.0000
 Cl4_A2_n31 Cl1-    0.261300    0.762900    0.061322    2.000000 Uiso  1.0000
 Cl5_A2_n31 Cl1-    0.738700    0.237100    0.060678    2.000000 Uiso  1.0000
 Cl6_A2_n31 Cl1-    0.261300    0.762900    0.060678    2.000000 Uiso  1.0000
 Li3_A2_n31 Li+    0.000000    0.500000    0.061000    2.000000 Uiso  0.2700
 Sc1_A2_n32 Sc3+    0.500000    0.000000    0.063000    2.000000 Uiso  1.0000
 Cl1_A2_n32 Cl1-    0.742100    0.768700    0.063000    2.000000 Uiso  1.0000
 Cl2_A2_n32 Cl1-    0.257900    0.231300    0.063000    2.000000 Uiso  1.0000
 Cl3_A2_n32 Cl1-    0.738700    0.237100    0.063322    2.000000 Uiso  1.0000
 Cl4_A2_n32 Cl1-    0.261300    0.762900    0.063322    2.000000 Uiso  1.0000
 Cl5_A2_n32 Cl1-    0.738700    0.237100    0.062678    2.000000 Uiso  1.0000
 Cl6_A2_n32 Cl1-    0.261300    0.762900    0.062678    2.000000 Uiso  1.0000
 Li3_A2_n32 Li+    0.000000    0.500000    0.063000    2.000000 Uiso  0.2700
 Sc1_A2_n33 Sc3+    0.500000    0.000000    0.065000    2.000000 Uiso  1.0000
 Cl1_A2_n33 Cl1-    0.742100    0.768700    0.065000    2.000000 Uiso  1.0000
 Cl2_A2_n33 Cl1-    0.257900    0.231300    0.065000    2.000000 Uiso  1.0000
 Cl3_A2_n33 Cl1-    0.738700    0.237100    0.065322    2.000000 Uiso  1.0000
 Cl4_A2_n33 Cl1-    0.261300    0.762900    0.065322    2.000000 Uiso  1.0000
 Cl5_A2_n33 Cl1-    0.738700    0.237100    0.064678    2.000000 Uiso  1.0000
 Cl6_A2_n33 Cl1-    0.261300    0.762900    0.064678    2.000000 Uiso  1.0000
 Li3_A2_n33 Li+    0.000000    0.500000    0.065000    2.000000 Uiso  0.2700
 Sc1_A2_n34 Sc3+    0.500000    0.000000    0.067000    2.000000 Uiso  1.0000
 Cl1_A2_n34 Cl1-    0.742100    0.768700    0.067000    2.000000 Uiso  1.0000
 Cl2_A2_n34 Cl1-    0.257900    0.231300    0.067000    2.000000 Uiso  1.0000
 Cl3_A2_n34 Cl1-    0.738700    0.237100    0.067322    2.000000 Uiso  1.0000
 Cl4_A2_n34 Cl1-    0.261300    0.762900    0.067322    2.000000 Uiso  1.0000
 Cl5_A2_n34 Cl1-    0.738700    0.237100    0.066678    2.000000 Uiso  1.0000
 Cl6_A2_n34 Cl1-    0.261300    0.762900    0.066678    2.000000 Uiso  1.0000
 Li3_A2_n34 Li+    0.000000    0.500000    0.067000    2.000000 Uiso  0.2700
 Sc1_A2_n35 Sc3+    0.500000    0.000000    0.069000    2.000000 Uiso  1.0000
 Cl1_A2_n35 Cl1-    0.742100    0.768700    0.069000    2.000000 Uiso  1.0000
 Cl2_A2_n35 Cl1-    0.257900    0.231300    0.069000    2.000000 Uiso  1.0000
 Cl3_A2_n35 Cl1-    0.738700    0.237100    0.069322    2.000000 Uiso  1.0000
 Cl4_A2_n35 Cl1-    0.261300    0.762900    0.069322    2.000000 Uiso  1.0000
 Cl5_A2_n35 Cl1-    0.738700    0.237100    0.068678    2.000000 Uiso  1.0000
 Cl6_A2_n35 Cl1-    0.261300    0.762900    0.068678    2.000000 Uiso  1.0000
 Li3_A2_n35 Li+    0.000000    0.500000    0.069000    2.000000 Uiso  0.2700
 Sc1_A2_n36 Sc3+    0.500000    0.000000    0.071000    2.000000 Uiso  1.0000
 Cl1_A2_n36 Cl1-    0.742100    0.768700    0.071000    2.000000 Uiso  1.0000
 Cl2_A2_n36 Cl1-    0.257900    0.231300    0.071000    2.000000 Uiso  1.0000
 Cl3_A2_n36 Cl1-    0.738700    0.237100    0.071322    2.000000 Uiso  1.0000
 Cl4_A2_n36 Cl1-    0.261300    0.762900    0.071322    2.000000 Uiso  1.0000
 Cl5_A2_n36 Cl1-    0.738700    0.237100    0.070678    2.000000 Uiso  1.0000
 Cl6_A2_n36 Cl1-    0.261300    0.762900    0.070678    2.000000 Uiso  1.0000
 Li3_A2_n36 Li+    0.000000    0.500000    0.071000    2.000000 Uiso  0.2700
 Sc1_A2_n37 Sc3+    0.500000    0.000000    0.073000    2.000000 Uiso  1.0000
 Cl1_A2_n37 Cl1-    0.742100    0.768700    0.073000    2.000000 Uiso  1.0000
 Cl2_A2_n37 Cl1-    0.257900    0.231300    0.073000    2.000000 Uiso  1.0000
 Cl3_A2_n37 Cl1-    0.738700    0.237100    0.073322    2.000000 Uiso  1.0000
 Cl4_A2_n37 Cl1-    0.261300    0.762900    0.073322    2.000000 Uiso  1.0000
 Cl5_A2_n37 Cl1-    0.738700    0.237100    0.072678    2.000000 Uiso  1.0000
 Cl6_A2_n37 Cl1-    0.261300    0.762900    0.072678    2.000000 Uiso  1.0000
 Li3_A2_n37 Li+    0.000000    0.500000    0.073000    2.000000 Uiso  0.2700
 Sc1_A2_n38 Sc3+    0.500000    0.000000    0.075000    2.000000 Uiso  1.0000
 Cl1_A2_n38 Cl1-    0.742100    0.768700    0.075000    2.000000 Uiso  1.0000
 Cl2_A2_n38 Cl1-    0.257900    0.231300    0.075000    2.000000 Uiso  1.0000
 Cl3_A2_n38 Cl1-    0.738700    0.237100    0.075322    2.000000 Uiso  1.0000
 Cl4_A2_n38 Cl1-    0.261300    0.762900    0.075322    2.000000 Uiso  1.0000
 Cl5_A2_n38 Cl1-    0.738700    0.237100    0.074678    2.000000 Uiso  1.0000
 Cl6_A2_n38 Cl1-    0.261300    0.762900    0.074678    2.000000 Uiso  1.0000
 Li3_A2_n38 Li+    0.000000    0.500000    0.075000    2.000000 Uiso  0.2700
 Sc1_A2_n39 Sc3+    0.500000    0.000000    0.077000    2.000000 Uiso  1.0000
 Cl1_A2_n39 Cl1-    0.742100    0.768700    0.077000    2.000000 Uiso  1.0000
 Cl2_A2_n39 Cl1-    0.257900    0.231300    0.077000    2.000000 Uiso  1.0000
 Cl3_A2_n39 Cl1-    0.738700    0.237100    0.077322    2.000000 Uiso  1.0000
 Cl4_A2_n39 Cl1-    0.261300    0.762900    0.077322    2.000000 Uiso  1.0000
 Cl5_A2_n39 Cl1-    0.738700    0.237100    0.076678    2.000000 Uiso  1.0000
 Cl6_A2_n39 Cl1-    0.261300    0.762900    0.076678    2.000000 Uiso  1.0000
 Li3_A2_n39 Li+    0.000000    0.500000    0.077000    2.000000 Uiso  0.2700
 Sc1_A2_n40 Sc3+    0.500000    0.000000    0.079000    2.000000 Uiso  1.0000
 Cl1_A2_n40 Cl1-    0.742100    0.768700    0.079000    2.000000 Uiso  1.0000
 Cl2_A2_n40 Cl1-    0.257900    0.231300    0.079000    2.000000 Uiso  1.0000
 Cl3_A2_n40 Cl1-    0.738700    0.237100    0.079322    2.000000 Uiso  1.0000
 Cl4_A2_n40 Cl1-    0.261300    0.762900    0.079322    2.000000 Uiso  1.0000
 Cl5_A2_n40 Cl1-    0.738700    0.237100    0.078678    2.000000 Uiso  1.0000
 Cl6_A2_n40 Cl1-    0.261300    0.762900    0.078678    2.000000 Uiso  1.0000
 Li3_A2_n40 Li+    0.000000    0.500000    0.079000    2.000000 Uiso  0.2700
 Sc1_A2_n41 Sc3+    0.500000    0.000000    0.081000    2.000000 Uiso  1.0000
 Cl1_A2_n41 Cl1-    0.742100    0.768700    0.081000    2.000000 Uiso  1.0000
 Cl2_A2_n41 Cl1-    0.257900    0.231300    0.081000    2.000000 Uiso  1.0000
 Cl3_A2_n41 Cl1-    0.738700    0.237100    0.081322    2.000000 Uiso  1.0000
 Cl4_A2_n41 Cl1-    0.261300    0.762900    0.081322    2.000000 Uiso  1.0000
 Cl5_A2_n41 Cl1-    0.738700    0.237100    0.080678    2.000000 Uiso  1.0000
 Cl6_A2_n41 Cl1-    0.261300    0.762900    0.080678    2.000000 Uiso  1.0000
 Li3_A2_n41 Li+    0.000000    0.500000    0.081000    2.000000 Uiso  0.2700
 Sc1_A2_n42 Sc3+    0.500000    0.000000    0.083000    2.000000 Uiso  1.0000
 Cl1_A2_n42 Cl1-    0.742100    0.768700    0.083000    2.000000 Uiso  1.0000
 Cl2_A2_n42 Cl1-    0.257900    0.231300    0.083000    2.000000 Uiso  1.0000
 Cl3_A2_n42 Cl1-    0.738700    0.237100    0.083322    2.000000 Uiso  1.0000
 Cl4_A2_n42 Cl1-    0.261300    0.762900    0.083322    2.000000 Uiso  1.0000
 Cl5_A2_n42 Cl1-    0.738700    0.237100    0.082678    2.000000 Uiso  1.0000
 Cl6_A2_n42 Cl1-    0.261300    0.762900    0.082678    2.000000 Uiso  1.0000
 Li3_A2_n42 Li+    0.000000    0.500000    0.083000    2.000000 Uiso  0.2700
 Sc1_A2_n43 Sc3+    0.500000    0.000000    0.085000    2.000000 Uiso  1.0000
 Cl1_A2_n43 Cl1-    0.742100    0.768700    0.085000    2.000000 Uiso  1.0000
 Cl2_A2_n43 Cl1-    0.257900    0.231300    0.085000    2.000000 Uiso  1.0000
 Cl3_A2_n43 Cl1-    0.738700    0.237100    0.085322    2.000000 Uiso  1.0000
 Cl4_A2_n43 Cl1-    0.261300    0.762900    0.085322    2.000000 Uiso  1.0000
 Cl5_A2_n43 Cl1-    0.738700    0.237100    0.084678    2.000000 Uiso  1.0000
 Cl6_A2_n43 Cl1-    0.261300    0.762900    0.084678    2.000000 Uiso  1.0000
 Li3_A2_n43 Li+    0.000000    0.500000    0.085000    2.000000 Uiso  0.2700
 Sc1_A2_n44 Sc3+    0.500000    0.000000    0.087000    2.000000 Uiso  1.0000
 Cl1_A2_n44 Cl1-    0.742100    0.768700    0.087000    2.000000 Uiso  1.0000
 Cl2_A2_n44 Cl1-    0.257900    0.231300    0.087000    2.000000 Uiso  1.0000
 Cl3_A2_n44 Cl1-    0.738700    0.237100    0.087322    2.000000 Uiso  1.0000
 Cl4_A2_n44 Cl1-    0.261300    0.762900    0.087322    2.000000 Uiso  1.0000
 Cl5_A2_n44 Cl1-    0.738700    0.237100    0.086678    2.000000 Uiso  1.0000
 Cl6_A2_n44 Cl1-    0.261300    0.762900    0.086678    2.000000 Uiso  1.0000
 Li3_A2_n44 Li+    0.000000    0.500000    0.087000    2.000000 Uiso  0.2700
 Sc1_A2_n45_fault Sc3+    0.500000    0.333330    0.089000    2.000000 Uiso  1.0000
 Cl1_A2_n45_fault Cl1-    0.742100    1.102030    0.089000    2.000000 Uiso  1.0000
 Cl2_A2_n45_fault Cl1-    0.257900    0.564630    0.089000    2.000000 Uiso  1.0000
 Cl3_A2_n45_fault Cl1-    0.738700    0.570430    0.089322    2.000000 Uiso  1.0000
 Cl4_A2_n45_fault Cl1-    0.261300    1.096230    0.089322    2.000000 Uiso  1.0000
 Cl5_A2_n45_fault Cl1-    0.738700    0.570430    0.088678    2.000000 Uiso  1.0000
 Cl6_A2_n45_fault Cl1-    0.261300    1.096230    0.088678    2.000000 Uiso  1.0000
 Li3_A2_n45_fault Li+    0.000000    0.833330    0.089000    2.000000 Uiso  0.2700
 Sc1_A2_n46 Sc3+    0.500000    0.000000    0.091000    2.000000 Uiso  1.0000
 Cl1_A2_n46 Cl1-    0.742100    0.768700    0.091000    2.000000 Uiso  1.0000
 Cl2_A2_n46 Cl1-    0.257900    0.231300    0.091000    2.000000 Uiso  1.0000
 Cl3_A2_n46 Cl1-    0.738700    0.237100    0.091322    2.000000 Uiso  1.0000
 Cl4_A2_n46 Cl1-    0.261300    0.762900    0.091322    2.000000 Uiso  1.0000
 Cl5_A2_n46 Cl1-    0.738700    0.237100    0.090678    2.000000 Uiso  1.0000
 Cl6_A2_n46 Cl1-    0.261300    0.762900    0.090678    2.000000 Uiso  1.0000
 Li3_A2_n46 Li+    0.000000    0.500000    0.091000    2.000000 Uiso  0.2700
 Sc1_A2_n47 Sc3+    0.500000    0.000000    0.093000    2.000000 Uiso  1.0000
 Cl1_A2_n47 Cl1-    0.742100    0.768700    0.093000    2.000000 Uiso  1.0000
 Cl2_A2_n47 Cl1-    0.257900    0.231300    0.093000    2.000000 Uiso  1.0000
 Cl3_A2_n47 Cl1-    0.738700    0.237100    0.093322    2.000000 Uiso  1.0000
 Cl4_A2_n47 Cl1-    0.261300    0.762900    0.093322    2.000000 Uiso  1.0000
 Cl5_A2_n47 Cl1-    0.738700    0.237100    0.092678    2.000000 Uiso  1.0000
 Cl6_A2_n47 Cl1-    0.261300    0.762900    0.092678    2.000000 Uiso  1.0000
 Li3_A2_n47 Li+    0.000000    0.500000    0.093000    2.000000 Uiso  0.2700
 Sc1_A2_n48 Sc3+    0.500000    0.000000    0.095000    2.000000 Uiso  1.0000
 Cl1_A2_n48 Cl1-    0.742100    0.768700    0.095000    2.000000 Uiso  1.0000
 Cl2_A2_n48 Cl1-    0.257900    0.231300    0.095000    2.000000 Uiso  1.0000
 Cl3_A2_n48 Cl1-    0.738700    0.237100    0.095322    2.000000 Uiso  1.0000
 Cl4_A2_n48 Cl1-    0.261300    0.762900    0.095322    2.000000 Uiso  1.0000
 Cl5_A2_n48 Cl1-    0.738700    0.237100    0.094678    2.000000 Uiso  1.0000
 Cl6_A2_n48 Cl1-    0.261300    0.762900    0.094678    2.000000 Uiso  1.0000
 Li3_A2_n48 Li+    0.000000    0.500000    0.095000    2.000000 Uiso  0.2700
 Sc1_A2_n49 Sc3+    0.500000    0.000000    0.097000    2.000000 Uiso  1.0000
 Cl1_A2_n49 Cl1-    0.742100    0.768700    0.097000    2.000000 Uiso  1.0000
 Cl2_A2_n49 Cl1-    0.257900    0.231300    0.097000    2.000000 Uiso  1.0000
 Cl3_A2_n49 Cl1-    0.738700    0.237100    0.097322    2.000000 Uiso  1.0000
 Cl4_A2_n49 Cl1-    0.261300    0.762900    0.097322    2.000000 Uiso  1.0000
 Cl5_A2_n49 Cl1-    0.738700    0.237100    0.096678    2.000000 Uiso  1.0000
 Cl6_A2_n49 Cl1-    0.261300    0.762900    0.096678    2.000000 Uiso  1.0000
 Li3_A2_n49 Li+    0.000000    0.500000    0.097000    2.000000 Uiso  0.2700
 Sc1_A2_n50 Sc3+    0.500000    0.000000    0.099000    2.000000 Uiso  1.0000
 Cl1_A2_n50 Cl1-    0.742100    0.768700    0.099000    2.000000 Uiso  1.0000
 Cl2_A2_n50 Cl1-    0.257900    0.231300    0.099000    2.000000 Uiso  1.0000
 Cl3_A2_n50 Cl1-    0.738700    0.237100    0.099322    2.000000 Uiso  1.0000
 Cl4_A2_n50 Cl1-    0.261300    0.762900    0.099322    2.000000 Uiso  1.0000
 Cl5_A2_n50 Cl1-    0.738700    0.237100    0.098678    2.000000 Uiso  1.0000
 Cl6_A2_n50 Cl1-    0.261300    0.762900    0.098678    2.000000 Uiso  1.0000
 Li3_A2_n50 Li+    0.000000    0.500000    0.099000    2.000000 Uiso  0.2700
 Sc1_A2_n51_fault Sc3+    0.500000    0.333330    0.101000    2.000000 Uiso  1.0000
 Cl1_A2_n51_fault Cl1-    0.742100    1.102030    0.101000    2.000000 Uiso  1.0000
 Cl2_A2_n51_fault Cl1-    0.257900    0.564630    0.101000    2.000000 Uiso  1.0000
 Cl3_A2_n51_fault Cl1-    0.738700    0.570430    0.101322    2.000000 Uiso  1.0000
 Cl4_A2_n51_fault Cl1-    0.261300    1.096230    0.101322    2.000000 Uiso  1.0000
 Cl5_A2_n51_fault Cl1-    0.738700    0.570430    0.100678    2.000000 Uiso  1.0000
 Cl6_A2_n51_fault Cl1-    0.261300    1.096230    0.100678    2.000000 Uiso  1.0000
 Li3_A2_n51_fault Li+    0.000000    0.833330    0.101000    2.000000 Uiso  0.2700
 Sc1_A2_n52 Sc3+    0.500000    0.000000    0.103000    2.000000 Uiso  1.0000
 Cl1_A2_n52 Cl1-    0.742100    0.768700    0.103000    2.000000 Uiso  1.0000
 Cl2_A2_n52 Cl1-    0.257900    0.231300    0.103000    2.000000 Uiso  1.0000
 Cl3_A2_n52 Cl1-    0.738700    0.237100    0.103322    2.000000 Uiso  1.0000
 Cl4_A2_n52 Cl1-    0.261300    0.762900    0.103322    2.000000 Uiso  1.0000
 Cl5_A2_n52 Cl1-    0.738700    0.237100    0.102678    2.000000 Uiso  1.0000
 Cl6_A2_n52 Cl1-    0.261300    0.762900    0.102678    2.000000 Uiso  1.0000
 Li3_A2_n52 Li+    0.000000    0.500000    0.103000    2.000000 Uiso  0.2700
 Sc1_A2_n53_fault Sc3+    0.500000    0.333330    0.105000    2.000000 Uiso  1.0000
 Cl1_A2_n53_fault Cl1-    0.742100    1.102030    0.105000    2.000000 Uiso  1.0000
 Cl2_A2_n53_fault Cl1-    0.257900    0.564630    0.105000    2.000000 Uiso  1.0000
 Cl3_A2_n53_fault Cl1-    0.738700    0.570430    0.105322    2.000000 Uiso  1.0000
 Cl4_A2_n53_fault Cl1-    0.261300    1.096230    0.105322    2.000000 Uiso  1.0000
 Cl5_A2_n53_fault Cl1-    0.738700    0.570430    0.104678    2.000000 Uiso  1.0000
 Cl6_A2_n53_fault Cl1-    0.261300    1.096230    0.104678    2.000000 Uiso  1.0000
 Li3_A2_n53_fault Li+    0.000000    0.833330    0.105000    2.000000 Uiso  0.2700
 Sc1_A2_n54 Sc3+    0.500000    0.000000    0.107000    2.000000 Uiso  1.0000
 Cl1_A2_n54 Cl1-    0.742100    0.768700    0.107000    2.000000 Uiso  1.0000
 Cl2_A2_n54 Cl1-    0.257900    0.231300    0.107000    2.000000 Uiso  1.0000
 Cl3_A2_n54 Cl1-    0.738700    0.237100    0.107322    2.000000 Uiso  1.0000
 Cl4_A2_n54 Cl1-    0.261300    0.762900    0.107322    2.000000 Uiso  1.0000
 Cl5_A2_n54 Cl1-    0.738700    0.237100    0.106678    2.000000 Uiso  1.0000
 Cl6_A2_n54 Cl1-    0.261300    0.762900    0.106678    2.000000 Uiso  1.0000
 Li3_A2_n54 Li+    0.000000    0.500000    0.107000    2.000000 Uiso  0.2700
 Sc1_A2_n55 Sc3+    0.500000    0.000000    0.109000    2.000000 Uiso  1.0000
 Cl1_A2_n55 Cl1-    0.742100    0.768700    0.109000    2.000000 Uiso  1.0000
 Cl2_A2_n55 Cl1-    0.257900    0.231300    0.109000    2.000000 Uiso  1.0000
 Cl3_A2_n55 Cl1-    0.738700    0.237100    0.109322    2.000000 Uiso  1.0000
 Cl4_A2_n55 Cl1-    0.261300    0.762900    0.109322    2.000000 Uiso  1.0000
 Cl5_A2_n55 Cl1-    0.738700    0.237100    0.108678    2.000000 Uiso  1.0000
 Cl6_A2_n55 Cl1-    0.261300    0.762900    0.108678    2.000000 Uiso  1.0000
 Li3_A2_n55 Li+    0.000000    0.500000    0.109000    2.000000 Uiso  0.2700
 Sc1_A2_n56 Sc3+    0.500000    0.000000    0.111000    2.000000 Uiso  1.0000
 Cl1_A2_n56 Cl1-    0.742100    0.768700    0.111000    2.000000 Uiso  1.0000
 Cl2_A2_n56 Cl1-    0.257900    0.231300    0.111000    2.000000 Uiso  1.0000
 Cl3_A2_n56 Cl1-    0.738700    0.237100    0.111322    2.000000 Uiso  1.0000
 Cl4_A2_n56 Cl1-    0.261300    0.762900    0.111322    2.000000 Uiso  1.0000
 Cl5_A2_n56 Cl1-    0.738700    0.237100    0.110678    2.000000 Uiso  1.0000
 Cl6_A2_n56 Cl1-    0.261300    0.762900    0.110678    2.000000 Uiso  1.0000
 Li3_A2_n56 Li+    0.000000    0.500000    0.111000    2.000000 Uiso  0.2700
 Sc1_A2_n57 Sc3+    0.500000    0.000000    0.113000    2.000000 Uiso  1.0000
 Cl1_A2_n57 Cl1-    0.742100    0.768700    0.113000    2.000000 Uiso  1.0000
 Cl2_A2_n57 Cl1-    0.257900    0.231300    0.113000    2.000000 Uiso  1.0000
 Cl3_A2_n57 Cl1-    0.738700    0.237100    0.113322    2.000000 Uiso  1.0000
 Cl4_A2_n57 Cl1-    0.261300    0.762900    0.113322    2.000000 Uiso  1.0000
 Cl5_A2_n57 Cl1-    0.738700    0.237100    0.112678    2.000000 Uiso  1.0000
 Cl6_A2_n57 Cl1-    0.261300    0.762900    0.112678    2.000000 Uiso  1.0000
 Li3_A2_n57 Li+    0.000000    0.500000    0.113000    2.000000 Uiso  0.2700
 Sc1_A2_n58 Sc3+    0.500000    0.000000    0.115000    2.000000 Uiso  1.0000
 Cl1_A2_n58 Cl1-    0.742100    0.768700    0.115000    2.000000 Uiso  1.0000
 Cl2_A2_n58 Cl1-    0.257900    0.231300    0.115000    2.000000 Uiso  1.0000
 Cl3_A2_n58 Cl1-    0.738700    0.237100    0.115322    2.000000 Uiso  1.0000
 Cl4_A2_n58 Cl1-    0.261300    0.762900    0.115322    2.000000 Uiso  1.0000
 Cl5_A2_n58 Cl1-    0.738700    0.237100    0.114678    2.000000 Uiso  1.0000
 Cl6_A2_n58 Cl1-    0.261300    0.762900    0.114678    2.000000 Uiso  1.0000
 Li3_A2_n58 Li+    0.000000    0.500000    0.115000    2.000000 Uiso  0.2700
 Sc1_A2_n59_fault Sc3+    0.500000    0.333330    0.117000    2.000000 Uiso  1.0000
 Cl1_A2_n59_fault Cl1-    0.742100    1.102030    0.117000    2.000000 Uiso  1.0000
 Cl2_A2_n59_fault Cl1-    0.257900    0.564630    0.117000    2.000000 Uiso  1.0000
 Cl3_A2_n59_fault Cl1-    0.738700    0.570430    0.117322    2.000000 Uiso  1.0000
 Cl4_A2_n59_fault Cl1-    0.261300    1.096230    0.117322    2.000000 Uiso  1.0000
 Cl5_A2_n59_fault Cl1-    0.738700    0.570430    0.116678    2.000000 Uiso  1.0000
 Cl6_A2_n59_fault Cl1-    0.261300    1.096230    0.116678    2.000000 Uiso  1.0000
 Li3_A2_n59_fault Li+    0.000000    0.833330    0.117000    2.000000 Uiso  0.2700
 Sc1_A2_n60 Sc3+    0.500000    0.000000    0.119000    2.000000 Uiso  1.0000
 Cl1_A2_n60 Cl1-    0.742100    0.768700    0.119000    2.000000 Uiso  1.0000
 Cl2_A2_n60 Cl1-    0.257900    0.231300    0.119000    2.000000 Uiso  1.0000
 Cl3_A2_n60 Cl1-    0.738700    0.237100    0.119322    2.000000 Uiso  1.0000
 Cl4_A2_n60 Cl1-    0.261300    0.762900    0.119322    2.000000 Uiso  1.0000
 Cl5_A2_n60 Cl1-    0.738700    0.237100    0.118678    2.000000 Uiso  1.0000
 Cl6_A2_n60 Cl1-    0.261300    0.762900    0.118678    2.000000 Uiso  1.0000
 Li3_A2_n60 Li+    0.000000    0.500000    0.119000    2.000000 Uiso  0.2700
 Sc1_A2_n61 Sc3+    0.500000    0.000000    0.121000    2.000000 Uiso  1.0000
 Cl1_A2_n61 Cl1-    0.742100    0.768700    0.121000    2.000000 Uiso  1.0000
 Cl2_A2_n61 Cl1-    0.257900    0.231300    0.121000    2.000000 Uiso  1.0000
 Cl3_A2_n61 Cl1-    0.738700    0.237100    0.121322    2.000000 Uiso  1.0000
 Cl4_A2_n61 Cl1-    0.261300    0.762900    0.121322    2.000000 Uiso  1.0000
 Cl5_A2_n61 Cl1-    0.738700    0.237100    0.120678    2.000000 Uiso  1.0000
 Cl6_A2_n61 Cl1-    0.261300    0.762900    0.120678    2.000000 Uiso  1.0000
 Li3_A2_n61 Li+    0.000000    0.500000    0.121000    2.000000 Uiso  0.2700
 Sc1_A2_n62 Sc3+    0.500000    0.000000    0.123000    2.000000 Uiso  1.0000
 Cl1_A2_n62 Cl1-    0.742100    0.768700    0.123000    2.000000 Uiso  1.0000
 Cl2_A2_n62 Cl1-    0.257900    0.231300    0.123000    2.000000 Uiso  1.0000
 Cl3_A2_n62 Cl1-    0.738700    0.237100    0.123322    2.000000 Uiso  1.0000
 Cl4_A2_n62 Cl1-    0.261300    0.762900    0.123322    2.000000 Uiso  1.0000
 Cl5_A2_n62 Cl1-    0.738700    0.237100    0.122678    2.000000 Uiso  1.0000
 Cl6_A2_n62 Cl1-    0.261300    0.762900    0.122678    2.000000 Uiso  1.0000
 Li3_A2_n62 Li+    0.000000    0.500000    0.123000    2.000000 Uiso  0.2700
 Sc1_A2_n63 Sc3+    0.500000    0.000000    0.125000    2.000000 Uiso  1.0000
 Cl1_A2_n63 Cl1-    0.742100    0.768700    0.125000    2.000000 Uiso  1.0000
 Cl2_A2_n63 Cl1-    0.257900    0.231300    0.125000    2.000000 Uiso  1.0000
 Cl3_A2_n63 Cl1-    0.738700    0.237100    0.125322    2.000000 Uiso  1.0000
 Cl4_A2_n63 Cl1-    0.261300    0.762900    0.125322    2.000000 Uiso  1.0000
 Cl5_A2_n63 Cl1-    0.738700    0.237100    0.124678    2.000000 Uiso  1.0000
 Cl6_A2_n63 Cl1-    0.261300    0.762900    0.124678    2.000000 Uiso  1.0000
 Li3_A2_n63 Li+    0.000000    0.500000    0.125000    2.000000 Uiso  0.2700
 Sc1_A2_n64 Sc3+    0.500000    0.000000    0.127000    2.000000 Uiso  1.0000
 Cl1_A2_n64 Cl1-    0.742100    0.768700    0.127000    2.000000 Uiso  1.0000
 Cl2_A2_n64 Cl1-    0.257900    0.231300    0.127000    2.000000 Uiso  1.0000
 Cl3_A2_n64 Cl1-    0.738700    0.237100    0.127322    2.000000 Uiso  1.0000
 Cl4_A2_n64 Cl1-    0.261300    0.762900    0.127322    2.000000 Uiso  1.0000
 Cl5_A2_n64 Cl1-    0.738700    0.237100    0.126678    2.000000 Uiso  1.0000
 Cl6_A2_n64 Cl1-    0.261300    0.762900    0.126678    2.000000 Uiso  1.0000
 Li3_A2_n64 Li+    0.000000    0.500000    0.127000    2.000000 Uiso  0.2700
 Sc1_A2_n65 Sc3+    0.500000    0.000000    0.129000    2.000000 Uiso  1.0000
 Cl1_A2_n65 Cl1-    0.742100    0.768700    0.129000    2.000000 Uiso  1.0000
 Cl2_A2_n65 Cl1-    0.257900    0.231300    0.129000    2.000000 Uiso  1.0000
 Cl3_A2_n65 Cl1-    0.738700    0.237100    0.129322    2.000000 Uiso  1.0000
 Cl4_A2_n65 Cl1-    0.261300    0.762900    0.129322    2.000000 Uiso  1.0000
 Cl5_A2_n65 Cl1-    0.738700    0.237100    0.128678    2.000000 Uiso  1.0000
 Cl6_A2_n65 Cl1-    0.261300    0.762900    0.128678    2.000000 Uiso  1.0000
 Li3_A2_n65 Li+    0.000000    0.500000    0.129000    2.000000 Uiso  0.2700
 Sc1_A2_n66 Sc3+    0.500000    0.000000    0.131000    2.000000 Uiso  1.0000
 Cl1_A2_n66 Cl1-    0.742100    0.768700    0.131000    2.000000 Uiso  1.0000
 Cl2_A2_n66 Cl1-    0.257900    0.231300    0.131000    2.000000 Uiso  1.0000
 Cl3_A2_n66 Cl1-    0.738700    0.237100    0.131322    2.000000 Uiso  1.0000
 Cl4_A2_n66 Cl1-    0.261300    0.762900    0.131322    2.000000 Uiso  1.0000
 Cl5_A2_n66 Cl1-    0.738700    0.237100    0.130678    2.000000 Uiso  1.0000
 Cl6_A2_n66 Cl1-    0.261300    0.762900    0.130678    2.000000 Uiso  1.0000
 Li3_A2_n66 Li+    0.000000    0.500000    0.131000    2.000000 Uiso  0.2700
 Sc1_A2_n67 Sc3+    0.500000    0.000000    0.133000    2.000000 Uiso  1.0000
 Cl1_A2_n67 Cl1-    0.742100    0.768700    0.133000    2.000000 Uiso  1.0000
 Cl2_A2_n67 Cl1-    0.257900    0.231300    0.133000    2.000000 Uiso  1.0000
 Cl3_A2_n67 Cl1-    0.738700    0.237100    0.133322    2.000000 Uiso  1.0000
 Cl4_A2_n67 Cl1-    0.261300    0.762900    0.133322    2.000000 Uiso  1.0000
 Cl5_A2_n67 Cl1-    0.738700    0.237100    0.132678    2.000000 Uiso  1.0000
 Cl6_A2_n67 Cl1-    0.261300    0.762900    0.132678    2.000000 Uiso  1.0000
 Li3_A2_n67 Li+    0.000000    0.500000    0.133000    2.000000 Uiso  0.2700
 Sc1_A2_n68 Sc3+    0.500000    0.000000    0.135000    2.000000 Uiso  1.0000
 Cl1_A2_n68 Cl1-    0.742100    0.768700    0.135000    2.000000 Uiso  1.0000
 Cl2_A2_n68 Cl1-    0.257900    0.231300    0.135000    2.000000 Uiso  1.0000
 Cl3_A2_n68 Cl1-    0.738700    0.237100    0.135322    2.000000 Uiso  1.0000
 Cl4_A2_n68 Cl1-    0.261300    0.762900    0.135322    2.000000 Uiso  1.0000
 Cl5_A2_n68 Cl1-    0.738700    0.237100    0.134678    2.000000 Uiso  1.0000
 Cl6_A2_n68 Cl1-    0.261300    0.762900    0.134678    2.000000 Uiso  1.0000
 Li3_A2_n68 Li+    0.000000    0.500000    0.135000    2.000000 Uiso  0.2700
 Sc1_A2_n69 Sc3+    0.500000    0.000000    0.137000    2.000000 Uiso  1.0000
 Cl1_A2_n69 Cl1-    0.742100    0.768700    0.137000    2.000000 Uiso  1.0000
 Cl2_A2_n69 Cl1-    0.257900    0.231300    0.137000    2.000000 Uiso  1.0000
 Cl3_A2_n69 Cl1-    0.738700    0.237100    0.137322    2.000000 Uiso  1.0000
 Cl4_A2_n69 Cl1-    0.261300    0.762900    0.137322    2.000000 Uiso  1.0000
 Cl5_A2_n69 Cl1-    0.738700    0.237100    0.136678    2.000000 Uiso  1.0000
 Cl6_A2_n69 Cl1-    0.261300    0.762900    0.136678    2.000000 Uiso  1.0000
 Li3_A2_n69 Li+    0.000000    0.500000    0.137000    2.000000 Uiso  0.2700
 Sc1_A2_n70 Sc3+    0.500000    0.000000    0.139000    2.000000 Uiso  1.0000
 Cl1_A2_n70 Cl1-    0.742100    0.768700    0.139000    2.000000 Uiso  1.0000
 Cl2_A2_n70 Cl1-    0.257900    0.231300    0.139000    2.000000 Uiso  1.0000
 Cl3_A2_n70 Cl1-    0.738700    0.237100    0.139322    2.000000 Uiso  1.0000
 Cl4_A2_n70 Cl1-    0.261300    0.762900    0.139322    2.000000 Uiso  1.0000
 Cl5_A2_n70 Cl1-    0.738700    0.237100    0.138678    2.000000 Uiso  1.0000
 Cl6_A2_n70 Cl1-    0.261300    0.762900    0.138678    2.000000 Uiso  1.0000
 Li3_A2_n70 Li+    0.000000    0.500000    0.139000    2.000000 Uiso  0.2700
 Sc1_A2_n71 Sc3+    0.500000    0.000000    0.141000    2.000000 Uiso  1.0000
 Cl1_A2_n71 Cl1-    0.742100    0.768700    0.141000    2.000000 Uiso  1.0000
 Cl2_A2_n71 Cl1-    0.257900    0.231300    0.141000    2.000000 Uiso  1.0000
 Cl3_A2_n71 Cl1-    0.738700    0.237100    0.141322    2.000000 Uiso  1.0000
 Cl4_A2_n71 Cl1-    0.261300    0.762900    0.141322    2.000000 Uiso  1.0000
 Cl5_A2_n71 Cl1-    0.738700    0.237100    0.140678    2.000000 Uiso  1.0000
 Cl6_A2_n71 Cl1-    0.261300    0.762900    0.140678    2.000000 Uiso  1.0000
 Li3_A2_n71 Li+    0.000000    0.500000    0.141000    2.000000 Uiso  0.2700
 Sc1_A2_n72 Sc3+    0.500000    0.000000    0.143000    2.000000 Uiso  1.0000
 Cl1_A2_n72 Cl1-    0.742100    0.768700    0.143000    2.000000 Uiso  1.0000
 Cl2_A2_n72 Cl1-    0.257900    0.231300    0.143000    2.000000 Uiso  1.0000
 Cl3_A2_n72 Cl1-    0.738700    0.237100    0.143322    2.000000 Uiso  1.0000
 Cl4_A2_n72 Cl1-    0.261300    0.762900    0.143322    2.000000 Uiso  1.0000
 Cl5_A2_n72 Cl1-    0.738700    0.237100    0.142678    2.000000 Uiso  1.0000
 Cl6_A2_n72 Cl1-    0.261300    0.762900    0.142678    2.000000 Uiso  1.0000
 Li3_A2_n72 Li+    0.000000    0.500000    0.143000    2.000000 Uiso  0.2700
 Sc1_A2_n73 Sc3+    0.500000    0.000000    0.145000    2.000000 Uiso  1.0000
 Cl1_A2_n73 Cl1-    0.742100    0.768700    0.145000    2.000000 Uiso  1.0000
 Cl2_A2_n73 Cl1-    0.257900    0.231300    0.145000    2.000000 Uiso  1.0000
 Cl3_A2_n73 Cl1-    0.738700    0.237100    0.145322    2.000000 Uiso  1.0000
 Cl4_A2_n73 Cl1-    0.261300    0.762900    0.145322    2.000000 Uiso  1.0000
 Cl5_A2_n73 Cl1-    0.738700    0.237100    0.144678    2.000000 Uiso  1.0000
 Cl6_A2_n73 Cl1-    0.261300    0.762900    0.144678    2.000000 Uiso  1.0000
 Li3_A2_n73 Li+    0.000000    0.500000    0.145000    2.000000 Uiso  0.2700
 Sc1_A2_n74 Sc3+    0.500000    0.000000    0.147000    2.000000 Uiso  1.0000
 Cl1_A2_n74 Cl1-    0.742100    0.768700    0.147000    2.000000 Uiso  1.0000
 Cl2_A2_n74 Cl1-    0.257900    0.231300    0.147000    2.000000 Uiso  1.0000
 Cl3_A2_n74 Cl1-    0.738700    0.237100    0.147322    2.000000 Uiso  1.0000
 Cl4_A2_n74 Cl1-    0.261300    0.762900    0.147322    2.000000 Uiso  1.0000
 Cl5_A2_n74 Cl1-    0.738700    0.237100    0.146678    2.000000 Uiso  1.0000
 Cl6_A2_n74 Cl1-    0.261300    0.762900    0.146678    2.000000 Uiso  1.0000
 Li3_A2_n74 Li+    0.000000    0.500000    0.147000    2.000000 Uiso  0.2700
 Sc1_A2_n75_fault Sc3+    0.500000    0.333330    0.149000    2.000000 Uiso  1.0000
 Cl1_A2_n75_fault Cl1-    0.742100    1.102030    0.149000    2.000000 Uiso  1.0000
 Cl2_A2_n75_fault Cl1-    0.257900    0.564630    0.149000    2.000000 Uiso  1.0000
 Cl3_A2_n75_fault Cl1-    0.738700    0.570430    0.149322    2.000000 Uiso  1.0000
 Cl4_A2_n75_fault Cl1-    0.261300    1.096230    0.149322    2.000000 Uiso  1.0000
 Cl5_A2_n75_fault Cl1-    0.738700    0.570430    0.148678    2.000000 Uiso  1.0000
 Cl6_A2_n75_fault Cl1-    0.261300    1.096230    0.148678    2.000000 Uiso  1.0000
 Li3_A2_n75_fault Li+    0.000000    0.833330    0.149000    2.000000 Uiso  0.2700
 Sc1_A2_n76 Sc3+    0.500000    0.000000    0.151000    2.000000 Uiso  1.0000
 Cl1_A2_n76 Cl1-    0.742100    0.768700    0.151000    2.000000 Uiso  1.0000
 Cl2_A2_n76 Cl1-    0.257900    0.231300    0.151000    2.000000 Uiso  1.0000
 Cl3_A2_n76 Cl1-    0.738700    0.237100    0.151322    2.000000 Uiso  1.0000
 Cl4_A2_n76 Cl1-    0.261300    0.762900    0.151322    2.000000 Uiso  1.0000
 Cl5_A2_n76 Cl1-    0.738700    0.237100    0.150678    2.000000 Uiso  1.0000
 Cl6_A2_n76 Cl1-    0.261300    0.762900    0.150678    2.000000 Uiso  1.0000
 Li3_A2_n76 Li+    0.000000    0.500000    0.151000    2.000000 Uiso  0.2700
 Sc1_A2_n77 Sc3+    0.500000    0.000000    0.153000    2.000000 Uiso  1.0000
 Cl1_A2_n77 Cl1-    0.742100    0.768700    0.153000    2.000000 Uiso  1.0000
 Cl2_A2_n77 Cl1-    0.257900    0.231300    0.153000    2.000000 Uiso  1.0000
 Cl3_A2_n77 Cl1-    0.738700    0.237100    0.153322    2.000000 Uiso  1.0000
 Cl4_A2_n77 Cl1-    0.261300    0.762900    0.153322    2.000000 Uiso  1.0000
 Cl5_A2_n77 Cl1-    0.738700    0.237100    0.152678    2.000000 Uiso  1.0000
 Cl6_A2_n77 Cl1-    0.261300    0.762900    0.152678    2.000000 Uiso  1.0000
 Li3_A2_n77 Li+    0.000000    0.500000    0.153000    2.000000 Uiso  0.2700
 Sc1_A2_n78 Sc3+    0.500000    0.000000    0.155000    2.000000 Uiso  1.0000
 Cl1_A2_n78 Cl1-    0.742100    0.768700    0.155000    2.000000 Uiso  1.0000
 Cl2_A2_n78 Cl1-    0.257900    0.231300    0.155000    2.000000 Uiso  1.0000
 Cl3_A2_n78 Cl1-    0.738700    0.237100    0.155322    2.000000 Uiso  1.0000
 Cl4_A2_n78 Cl1-    0.261300    0.762900    0.155322    2.000000 Uiso  1.0000
 Cl5_A2_n78 Cl1-    0.738700    0.237100    0.154678    2.000000 Uiso  1.0000
 Cl6_A2_n78 Cl1-    0.261300    0.762900    0.154678    2.000000 Uiso  1.0000
 Li3_A2_n78 Li+    0.000000    0.500000    0.155000    2.000000 Uiso  0.2700
 Sc1_A2_n79 Sc3+    0.500000    0.000000    0.157000    2.000000 Uiso  1.0000
 Cl1_A2_n79 Cl1-    0.742100    0.768700    0.157000    2.000000 Uiso  1.0000
 Cl2_A2_n79 Cl1-    0.257900    0.231300    0.157000    2.000000 Uiso  1.0000
 Cl3_A2_n79 Cl1-    0.738700    0.237100    0.157322    2.000000 Uiso  1.0000
 Cl4_A2_n79 Cl1-    0.261300    0.762900    0.157322    2.000000 Uiso  1.0000
 Cl5_A2_n79 Cl1-    0.738700    0.237100    0.156678    2.000000 Uiso  1.0000
 Cl6_A2_n79 Cl1-    0.261300    0.762900    0.156678    2.000000 Uiso  1.0000
 Li3_A2_n79 Li+    0.000000    0.500000    0.157000    2.000000 Uiso  0.2700
 Sc1_A2_n80 Sc3+    0.500000    0.000000    0.159000    2.000000 Uiso  1.0000
 Cl1_A2_n80 Cl1-    0.742100    0.768700    0.159000    2.000000 Uiso  1.0000
 Cl2_A2_n80 Cl1-    0.257900    0.231300    0.159000    2.000000 Uiso  1.0000
 Cl3_A2_n80 Cl1-    0.738700    0.237100    0.159322    2.000000 Uiso  1.0000
 Cl4_A2_n80 Cl1-    0.261300    0.762900    0.159322    2.000000 Uiso  1.0000
 Cl5_A2_n80 Cl1-    0.738700    0.237100    0.158678    2.000000 Uiso  1.0000
 Cl6_A2_n80 Cl1-    0.261300    0.762900    0.158678    2.000000 Uiso  1.0000
 Li3_A2_n80 Li+    0.000000    0.500000    0.159000    2.000000 Uiso  0.2700
 Sc1_A2_n81_fault Sc3+    0.500000    0.333330    0.161000    2.000000 Uiso  1.0000
 Cl1_A2_n81_fault Cl1-    0.742100    1.102030    0.161000    2.000000 Uiso  1.0000
 Cl2_A2_n81_fault Cl1-    0.257900    0.564630    0.161000    2.000000 Uiso  1.0000
 Cl3_A2_n81_fault Cl1-    0.738700    0.570430    0.161322    2.000000 Uiso  1.0000
 Cl4_A2_n81_fault Cl1-    0.261300    1.096230    0.161322    2.000000 Uiso  1.0000
 Cl5_A2_n81_fault Cl1-    0.738700    0.570430    0.160678    2.000000 Uiso  1.0000
 Cl6_A2_n81_fault Cl1-    0.261300    1.096230    0.160678    2.000000 Uiso  1.0000
 Li3_A2_n81_fault Li+    0.000000    0.833330    0.161000    2.000000 Uiso  0.2700
 Sc1_A2_n82 Sc3+    0.500000    0.000000    0.163000    2.000000 Uiso  1.0000
 Cl1_A2_n82 Cl1-    0.742100    0.768700    0.163000    2.000000 Uiso  1.0000
 Cl2_A2_n82 Cl1-    0.257900    0.231300    0.163000    2.000000 Uiso  1.0000
 Cl3_A2_n82 Cl1-    0.738700    0.237100    0.163322    2.000000 Uiso  1.0000
 Cl4_A2_n82 Cl1-    0.261300    0.762900    0.163322    2.000000 Uiso  1.0000
 Cl5_A2_n82 Cl1-    0.738700    0.237100    0.162678    2.000000 Uiso  1.0000
 Cl6_A2_n82 Cl1-    0.261300    0.762900    0.162678    2.000000 Uiso  1.0000
 Li3_A2_n82 Li+    0.000000    0.500000    0.163000    2.000000 Uiso  0.2700
 Sc1_A2_n83 Sc3+    0.500000    0.000000    0.165000    2.000000 Uiso  1.0000
 Cl1_A2_n83 Cl1-    0.742100    0.768700    0.165000    2.000000 Uiso  1.0000
 Cl2_A2_n83 Cl1-    0.257900    0.231300    0.165000    2.000000 Uiso  1.0000
 Cl3_A2_n83 Cl1-    0.738700    0.237100    0.165322    2.000000 Uiso  1.0000
 Cl4_A2_n83 Cl1-    0.261300    0.762900    0.165322    2.000000 Uiso  1.0000
 Cl5_A2_n83 Cl1-    0.738700    0.237100    0.164678    2.000000 Uiso  1.0000
 Cl6_A2_n83 Cl1-    0.261300    0.762900    0.164678    2.000000 Uiso  1.0000
 Li3_A2_n83 Li+    0.000000    0.500000    0.165000    2.000000 Uiso  0.2700
 Sc1_A2_n84 Sc3+    0.500000    0.000000    0.167000    2.000000 Uiso  1.0000
 Cl1_A2_n84 Cl1-    0.742100    0.768700    0.167000    2.000000 Uiso  1.0000
 Cl2_A2_n84 Cl1-    0.257900    0.231300    0.167000    2.000000 Uiso  1.0000
 Cl3_A2_n84 Cl1-    0.738700    0.237100    0.167322    2.000000 Uiso  1.0000
 Cl4_A2_n84 Cl1-    0.261300    0.762900    0.167322    2.000000 Uiso  1.0000
 Cl5_A2_n84 Cl1-    0.738700    0.237100    0.166678    2.000000 Uiso  1.0000
 Cl6_A2_n84 Cl1-    0.261300    0.762900    0.166678    2.000000 Uiso  1.0000
 Li3_A2_n84 Li+    0.000000    0.500000    0.167000    2.000000 Uiso  0.2700
 Sc1_A2_n85 Sc3+    0.500000    0.000000    0.169000    2.000000 Uiso  1.0000
 Cl1_A2_n85 Cl1-    0.742100    0.768700    0.169000    2.000000 Uiso  1.0000
 Cl2_A2_n85 Cl1-    0.257900    0.231300    0.169000    2.000000 Uiso  1.0000
 Cl3_A2_n85 Cl1-    0.738700    0.237100    0.169322    2.000000 Uiso  1.0000
 Cl4_A2_n85 Cl1-    0.261300    0.762900    0.169322    2.000000 Uiso  1.0000
 Cl5_A2_n85 Cl1-    0.738700    0.237100    0.168678    2.000000 Uiso  1.0000
 Cl6_A2_n85 Cl1-    0.261300    0.762900    0.168678    2.000000 Uiso  1.0000
 Li3_A2_n85 Li+    0.000000    0.500000    0.169000    2.000000 Uiso  0.2700
 Sc1_A2_n86_fault Sc3+    0.500000    0.333330    0.171000    2.000000 Uiso  1.0000
 Cl1_A2_n86_fault Cl1-    0.742100    1.102030    0.171000    2.000000 Uiso  1.0000
 Cl2_A2_n86_fault Cl1-    0.257900    0.564630    0.171000    2.000000 Uiso  1.0000
 Cl3_A2_n86_fault Cl1-    0.738700    0.570430    0.171322    2.000000 Uiso  1.0000
 Cl4_A2_n86_fault Cl1-    0.261300    1.096230    0.171322    2.000000 Uiso  1.0000
 Cl5_A2_n86_fault Cl1-    0.738700    0.570430    0.170678    2.000000 Uiso  1.0000
 Cl6_A2_n86_fault Cl1-    0.261300    1.096230    0.170678    2.000000 Uiso  1.0000
 Li3_A2_n86_fault Li+    0.000000    0.833330    0.171000    2.000000 Uiso  0.2700
 Sc1_A2_n87 Sc3+    0.500000    0.000000    0.173000    2.000000 Uiso  1.0000
 Cl1_A2_n87 Cl1-    0.742100    0.768700    0.173000    2.000000 Uiso  1.0000
 Cl2_A2_n87 Cl1-    0.257900    0.231300    0.173000    2.000000 Uiso  1.0000
 Cl3_A2_n87 Cl1-    0.738700    0.237100    0.173322    2.000000 Uiso  1.0000
 Cl4_A2_n87 Cl1-    0.261300    0.762900    0.173322    2.000000 Uiso  1.0000
 Cl5_A2_n87 Cl1-    0.738700    0.237100    0.172678    2.000000 Uiso  1.0000
 Cl6_A2_n87 Cl1-    0.261300    0.762900    0.172678    2.000000 Uiso  1.0000
 Li3_A2_n87 Li+    0.000000    0.500000    0.173000    2.000000 Uiso  0.2700
 Sc1_A2_n88_fault Sc3+    0.500000    0.333330    0.175000    2.000000 Uiso  1.0000
 Cl1_A2_n88_fault Cl1-    0.742100    1.102030    0.175000    2.000000 Uiso  1.0000
 Cl2_A2_n88_fault Cl1-    0.257900    0.564630    0.175000    2.000000 Uiso  1.0000
 Cl3_A2_n88_fault Cl1-    0.738700    0.570430    0.175322    2.000000 Uiso  1.0000
 Cl4_A2_n88_fault Cl1-    0.261300    1.096230    0.175322    2.000000 Uiso  1.0000
 Cl5_A2_n88_fault Cl1-    0.738700    0.570430    0.174678    2.000000 Uiso  1.0000
 Cl6_A2_n88_fault Cl1-    0.261300    1.096230    0.174678    2.000000 Uiso  1.0000
 Li3_A2_n88_fault Li+    0.000000    0.833330    0.175000    2.000000 Uiso  0.2700
 Sc1_A2_n89 Sc3+    0.500000    0.000000    0.177000    2.000000 Uiso  1.0000
 Cl1_A2_n89 Cl1-    0.742100    0.768700    0.177000    2.000000 Uiso  1.0000
 Cl2_A2_n89 Cl1-    0.257900    0.231300    0.177000    2.000000 Uiso  1.0000
 Cl3_A2_n89 Cl1-    0.738700    0.237100    0.177322    2.000000 Uiso  1.0000
 Cl4_A2_n89 Cl1-    0.261300    0.762900    0.177322    2.000000 Uiso  1.0000
 Cl5_A2_n89 Cl1-    0.738700    0.237100    0.176678    2.000000 Uiso  1.0000
 Cl6_A2_n89 Cl1-    0.261300    0.762900    0.176678    2.000000 Uiso  1.0000
 Li3_A2_n89 Li+    0.000000    0.500000    0.177000    2.000000 Uiso  0.2700
 Sc1_A2_n90 Sc3+    0.500000    0.000000    0.179000    2.000000 Uiso  1.0000
 Cl1_A2_n90 Cl1-    0.742100    0.768700    0.179000    2.000000 Uiso  1.0000
 Cl2_A2_n90 Cl1-    0.257900    0.231300    0.179000    2.000000 Uiso  1.0000
 Cl3_A2_n90 Cl1-    0.738700    0.237100    0.179322    2.000000 Uiso  1.0000
 Cl4_A2_n90 Cl1-    0.261300    0.762900    0.179322    2.000000 Uiso  1.0000
 Cl5_A2_n90 Cl1-    0.738700    0.237100    0.178678    2.000000 Uiso  1.0000
 Cl6_A2_n90 Cl1-    0.261300    0.762900    0.178678    2.000000 Uiso  1.0000
 Li3_A2_n90 Li+    0.000000    0.500000    0.179000    2.000000 Uiso  0.2700
 Sc1_A2_n91 Sc3+    0.500000    0.000000    0.181000    2.000000 Uiso  1.0000
 Cl1_A2_n91 Cl1-    0.742100    0.768700    0.181000    2.000000 Uiso  1.0000
 Cl2_A2_n91 Cl1-    0.257900    0.231300    0.181000    2.000000 Uiso  1.0000
 Cl3_A2_n91 Cl1-    0.738700    0.237100    0.181322    2.000000 Uiso  1.0000
 Cl4_A2_n91 Cl1-    0.261300    0.762900    0.181322    2.000000 Uiso  1.0000
 Cl5_A2_n91 Cl1-    0.738700    0.237100    0.180678    2.000000 Uiso  1.0000
 Cl6_A2_n91 Cl1-    0.261300    0.762900    0.180678    2.000000 Uiso  1.0000
 Li3_A2_n91 Li+    0.000000    0.500000    0.181000    2.000000 Uiso  0.2700
 Sc1_A2_n92 Sc3+    0.500000    0.000000    0.183000    2.000000 Uiso  1.0000
 Cl1_A2_n92 Cl1-    0.742100    0.768700    0.183000    2.000000 Uiso  1.0000
 Cl2_A2_n92 Cl1-    0.257900    0.231300    0.183000    2.000000 Uiso  1.0000
 Cl3_A2_n92 Cl1-    0.738700    0.237100    0.183322    2.000000 Uiso  1.0000
 Cl4_A2_n92 Cl1-    0.261300    0.762900    0.183322    2.000000 Uiso  1.0000
 Cl5_A2_n92 Cl1-    0.738700    0.237100    0.182678    2.000000 Uiso  1.0000
 Cl6_A2_n92 Cl1-    0.261300    0.762900    0.182678    2.000000 Uiso  1.0000
 Li3_A2_n92 Li+    0.000000    0.500000    0.183000    2.000000 Uiso  0.2700
 Sc1_A2_n93 Sc3+    0.500000    0.000000    0.185000    2.000000 Uiso  1.0000
 Cl1_A2_n93 Cl1-    0.742100    0.768700    0.185000    2.000000 Uiso  1.0000
 Cl2_A2_n93 Cl1-    0.257900    0.231300    0.185000    2.000000 Uiso  1.0000
 Cl3_A2_n93 Cl1-    0.738700    0.237100    0.185322    2.000000 Uiso  1.0000
 Cl4_A2_n93 Cl1-    0.261300    0.762900    0.185322    2.000000 Uiso  1.0000
 Cl5_A2_n93 Cl1-    0.738700    0.237100    0.184678    2.000000 Uiso  1.0000
 Cl6_A2_n93 Cl1-    0.261300    0.762900    0.184678    2.000000 Uiso  1.0000
 Li3_A2_n93 Li+    0.000000    0.500000    0.185000    2.000000 Uiso  0.2700
 Sc1_A2_n94 Sc3+    0.500000    0.000000    0.187000    2.000000 Uiso  1.0000
 Cl1_A2_n94 Cl1-    0.742100    0.768700    0.187000    2.000000 Uiso  1.0000
 Cl2_A2_n94 Cl1-    0.257900    0.231300    0.187000    2.000000 Uiso  1.0000
 Cl3_A2_n94 Cl1-    0.738700    0.237100    0.187322    2.000000 Uiso  1.0000
 Cl4_A2_n94 Cl1-    0.261300    0.762900    0.187322    2.000000 Uiso  1.0000
 Cl5_A2_n94 Cl1-    0.738700    0.237100    0.186678    2.000000 Uiso  1.0000
 Cl6_A2_n94 Cl1-    0.261300    0.762900    0.186678    2.000000 Uiso  1.0000
 Li3_A2_n94 Li+    0.000000    0.500000    0.187000    2.000000 Uiso  0.2700
 Sc1_A2_n95 Sc3+    0.500000    0.000000    0.189000    2.000000 Uiso  1.0000
 Cl1_A2_n95 Cl1-    0.742100    0.768700    0.189000    2.000000 Uiso  1.0000
 Cl2_A2_n95 Cl1-    0.257900    0.231300    0.189000    2.000000 Uiso  1.0000
 Cl3_A2_n95 Cl1-    0.738700    0.237100    0.189322    2.000000 Uiso  1.0000
 Cl4_A2_n95 Cl1-    0.261300    0.762900    0.189322    2.000000 Uiso  1.0000
 Cl5_A2_n95 Cl1-    0.738700    0.237100    0.188678    2.000000 Uiso  1.0000
 Cl6_A2_n95 Cl1-    0.261300    0.762900    0.188678    2.000000 Uiso  1.0000
 Li3_A2_n95 Li+    0.000000    0.500000    0.189000    2.000000 Uiso  0.2700
 Sc1_A2_n96 Sc3+    0.500000    0.000000    0.191000    2.000000 Uiso  1.0000
 Cl1_A2_n96 Cl1-    0.742100    0.768700    0.191000    2.000000 Uiso  1.0000
 Cl2_A2_n96 Cl1-    0.257900    0.231300    0.191000    2.000000 Uiso  1.0000
 Cl3_A2_n96 Cl1-    0.738700    0.237100    0.191322    2.000000 Uiso  1.0000
 Cl4_A2_n96 Cl1-    0.261300    0.762900    0.191322    2.000000 Uiso  1.0000
 Cl5_A2_n96 Cl1-    0.738700    0.237100    0.190678    2.000000 Uiso  1.0000
 Cl6_A2_n96 Cl1-    0.261300    0.762900    0.190678    2.000000 Uiso  1.0000
 Li3_A2_n96 Li+    0.000000    0.500000    0.191000    2.000000 Uiso  0.2700
 Sc1_A2_n97 Sc3+    0.500000    0.000000    0.193000    2.000000 Uiso  1.0000
 Cl1_A2_n97 Cl1-    0.742100    0.768700    0.193000    2.000000 Uiso  1.0000
 Cl2_A2_n97 Cl1-    0.257900    0.231300    0.193000    2.000000 Uiso  1.0000
 Cl3_A2_n97 Cl1-    0.738700    0.237100    0.193322    2.000000 Uiso  1.0000
 Cl4_A2_n97 Cl1-    0.261300    0.762900    0.193322    2.000000 Uiso  1.0000
 Cl5_A2_n97 Cl1-    0.738700    0.237100    0.192678    2.000000 Uiso  1.0000
 Cl6_A2_n97 Cl1-    0.261300    0.762900    0.192678    2.000000 Uiso  1.0000
 Li3_A2_n97 Li+    0.000000    0.500000    0.193000    2.000000 Uiso  0.2700
 Sc1_A2_n98 Sc3+    0.500000    0.000000    0.195000    2.000000 Uiso  1.0000
 Cl1_A2_n98 Cl1-    0.742100    0.768700    0.195000    2.000000 Uiso  1.0000
 Cl2_A2_n98 Cl1-    0.257900    0.231300    0.195000    2.000000 Uiso  1.0000
 Cl3_A2_n98 Cl1-    0.738700    0.237100    0.195322    2.000000 Uiso  1.0000
 Cl4_A2_n98 Cl1-    0.261300    0.762900    0.195322    2.000000 Uiso  1.0000
 Cl5_A2_n98 Cl1-    0.738700    0.237100    0.194678    2.000000 Uiso  1.0000
 Cl6_A2_n98 Cl1-    0.261300    0.762900    0.194678    2.000000 Uiso  1.0000
 Li3_A2_n98 Li+    0.000000    0.500000    0.195000    2.000000 Uiso  0.2700
 Sc1_A2_n99 Sc3+    0.500000    0.000000    0.197000    2.000000 Uiso  1.0000
 Cl1_A2_n99 Cl1-    0.742100    0.768700    0.197000    2.000000 Uiso  1.0000
 Cl2_A2_n99 Cl1-    0.257900    0.231300    0.197000    2.000000 Uiso  1.0000
 Cl3_A2_n99 Cl1-    0.738700    0.237100    0.197322    2.000000 Uiso  1.0000
 Cl4_A2_n99 Cl1-    0.261300    0.762900    0.197322    2.000000 Uiso  1.0000
 Cl5_A2_n99 Cl1-    0.738700    0.237100    0.196678    2.000000 Uiso  1.0000
 Cl6_A2_n99 Cl1-    0.261300    0.762900    0.196678    2.000000 Uiso  1.0000
 Li3_A2_n99 Li+    0.000000    0.500000    0.197000    2.000000 Uiso  0.2700
 Sc1_A2_n100_fault Sc3+    0.500000    0.333330    0.199000    2.000000 Uiso  1.0000
 Cl1_A2_n100_fault Cl1-    0.742100    1.102030    0.199000    2.000000 Uiso  1.0000
 Cl2_A2_n100_fault Cl1-    0.257900    0.564630    0.199000    2.000000 Uiso  1.0000
 Cl3_A2_n100_fault Cl1-    0.738700    0.570430    0.199322    2.000000 Uiso  1.0000
 Cl4_A2_n100_fault Cl1-    0.261300    1.096230    0.199322    2.000000 Uiso  1.0000
 Cl5_A2_n100_fault Cl1-    0.738700    0.570430    0.198678    2.000000 Uiso  1.0000
 Cl6_A2_n100_fault Cl1-    0.261300    1.096230    0.198678    2.000000 Uiso  1.0000
 Li3_A2_n100_fault Li+    0.000000    0.833330    0.199000    2.000000 Uiso  0.2700
 Sc1_A2_n101 Sc3+    0.500000    0.000000    0.201000    2.000000 Uiso  1.0000
 Cl1_A2_n101 Cl1-    0.742100    0.768700    0.201000    2.000000 Uiso  1.0000
 Cl2_A2_n101 Cl1-    0.257900    0.231300    0.201000    2.000000 Uiso  1.0000
 Cl3_A2_n101 Cl1-    0.738700    0.237100    0.201322    2.000000 Uiso  1.0000
 Cl4_A2_n101 Cl1-    0.261300    0.762900    0.201322    2.000000 Uiso  1.0000
 Cl5_A2_n101 Cl1-    0.738700    0.237100    0.200678    2.000000 Uiso  1.0000
 Cl6_A2_n101 Cl1-    0.261300    0.762900    0.200678    2.000000 Uiso  1.0000
 Li3_A2_n101 Li+    0.000000    0.500000    0.201000    2.000000 Uiso  0.2700
 Sc1_A2_n102 Sc3+    0.500000    0.000000    0.203000    2.000000 Uiso  1.0000
 Cl1_A2_n102 Cl1-    0.742100    0.768700    0.203000    2.000000 Uiso  1.0000
 Cl2_A2_n102 Cl1-    0.257900    0.231300    0.203000    2.000000 Uiso  1.0000
 Cl3_A2_n102 Cl1-    0.738700    0.237100    0.203322    2.000000 Uiso  1.0000
 Cl4_A2_n102 Cl1-    0.261300    0.762900    0.203322    2.000000 Uiso  1.0000
 Cl5_A2_n102 Cl1-    0.738700    0.237100    0.202678    2.000000 Uiso  1.0000
 Cl6_A2_n102 Cl1-    0.261300    0.762900    0.202678    2.000000 Uiso  1.0000
 Li3_A2_n102 Li+    0.000000    0.500000    0.203000    2.000000 Uiso  0.2700
 Sc1_A2_n103 Sc3+    0.500000    0.000000    0.205000    2.000000 Uiso  1.0000
 Cl1_A2_n103 Cl1-    0.742100    0.768700    0.205000    2.000000 Uiso  1.0000
 Cl2_A2_n103 Cl1-    0.257900    0.231300    0.205000    2.000000 Uiso  1.0000
 Cl3_A2_n103 Cl1-    0.738700    0.237100    0.205322    2.000000 Uiso  1.0000
 Cl4_A2_n103 Cl1-    0.261300    0.762900    0.205322    2.000000 Uiso  1.0000
 Cl5_A2_n103 Cl1-    0.738700    0.237100    0.204678    2.000000 Uiso  1.0000
 Cl6_A2_n103 Cl1-    0.261300    0.762900    0.204678    2.000000 Uiso  1.0000
 Li3_A2_n103 Li+    0.000000    0.500000    0.205000    2.000000 Uiso  0.2700
 Sc1_A2_n104 Sc3+    0.500000    0.000000    0.207000    2.000000 Uiso  1.0000
 Cl1_A2_n104 Cl1-    0.742100    0.768700    0.207000    2.000000 Uiso  1.0000
 Cl2_A2_n104 Cl1-    0.257900    0.231300    0.207000    2.000000 Uiso  1.0000
 Cl3_A2_n104 Cl1-    0.738700    0.237100    0.207322    2.000000 Uiso  1.0000
 Cl4_A2_n104 Cl1-    0.261300    0.762900    0.207322    2.000000 Uiso  1.0000
 Cl5_A2_n104 Cl1-    0.738700    0.237100    0.206678    2.000000 Uiso  1.0000
 Cl6_A2_n104 Cl1-    0.261300    0.762900    0.206678    2.000000 Uiso  1.0000
 Li3_A2_n104 Li+    0.000000    0.500000    0.207000    2.000000 Uiso  0.2700
 Sc1_A2_n105 Sc3+    0.500000    0.000000    0.209000    2.000000 Uiso  1.0000
 Cl1_A2_n105 Cl1-    0.742100    0.768700    0.209000    2.000000 Uiso  1.0000
 Cl2_A2_n105 Cl1-    0.257900    0.231300    0.209000    2.000000 Uiso  1.0000
 Cl3_A2_n105 Cl1-    0.738700    0.237100    0.209322    2.000000 Uiso  1.0000
 Cl4_A2_n105 Cl1-    0.261300    0.762900    0.209322    2.000000 Uiso  1.0000
 Cl5_A2_n105 Cl1-    0.738700    0.237100    0.208678    2.000000 Uiso  1.0000
 Cl6_A2_n105 Cl1-    0.261300    0.762900    0.208678    2.000000 Uiso  1.0000
 Li3_A2_n105 Li+    0.000000    0.500000    0.209000    2.000000 Uiso  0.2700
 Sc1_A2_n106 Sc3+    0.500000    0.000000    0.211000    2.000000 Uiso  1.0000
 Cl1_A2_n106 Cl1-    0.742100    0.768700    0.211000    2.000000 Uiso  1.0000
 Cl2_A2_n106 Cl1-    0.257900    0.231300    0.211000    2.000000 Uiso  1.0000
 Cl3_A2_n106 Cl1-    0.738700    0.237100    0.211322    2.000000 Uiso  1.0000
 Cl4_A2_n106 Cl1-    0.261300    0.762900    0.211322    2.000000 Uiso  1.0000
 Cl5_A2_n106 Cl1-    0.738700    0.237100    0.210678    2.000000 Uiso  1.0000
 Cl6_A2_n106 Cl1-    0.261300    0.762900    0.210678    2.000000 Uiso  1.0000
 Li3_A2_n106 Li+    0.000000    0.500000    0.211000    2.000000 Uiso  0.2700
 Sc1_A2_n107_fault Sc3+    0.500000    0.333330    0.213000    2.000000 Uiso  1.0000
 Cl1_A2_n107_fault Cl1-    0.742100    1.102030    0.213000    2.000000 Uiso  1.0000
 Cl2_A2_n107_fault Cl1-    0.257900    0.564630    0.213000    2.000000 Uiso  1.0000
 Cl3_A2_n107_fault Cl1-    0.738700    0.570430    0.213322    2.000000 Uiso  1.0000
 Cl4_A2_n107_fault Cl1-    0.261300    1.096230    0.213322    2.000000 Uiso  1.0000
 Cl5_A2_n107_fault Cl1-    0.738700    0.570430    0.212678    2.000000 Uiso  1.0000
 Cl6_A2_n107_fault Cl1-    0.261300    1.096230    0.212678    2.000000 Uiso  1.0000
 Li3_A2_n107_fault Li+    0.000000    0.833330    0.213000    2.000000 Uiso  0.2700
 Sc1_A2_n108_fault Sc3+    0.500000    0.333330    0.215000    2.000000 Uiso  1.0000
 Cl1_A2_n108_fault Cl1-    0.742100    1.102030    0.215000    2.000000 Uiso  1.0000
 Cl2_A2_n108_fault Cl1-    0.257900    0.564630    0.215000    2.000000 Uiso  1.0000
 Cl3_A2_n108_fault Cl1-    0.738700    0.570430    0.215322    2.000000 Uiso  1.0000
 Cl4_A2_n108_fault Cl1-    0.261300    1.096230    0.215322    2.000000 Uiso  1.0000
 Cl5_A2_n108_fault Cl1-    0.738700    0.570430    0.214678    2.000000 Uiso  1.0000
 Cl6_A2_n108_fault Cl1-    0.261300    1.096230    0.214678    2.000000 Uiso  1.0000
 Li3_A2_n108_fault Li+    0.000000    0.833330    0.215000    2.000000 Uiso  0.2700
 Sc1_A2_n109 Sc3+    0.500000    0.000000    0.217000    2.000000 Uiso  1.0000
 Cl1_A2_n109 Cl1-    0.742100    0.768700    0.217000    2.000000 Uiso  1.0000
 Cl2_A2_n109 Cl1-    0.257900    0.231300    0.217000    2.000000 Uiso  1.0000
 Cl3_A2_n109 Cl1-    0.738700    0.237100    0.217322    2.000000 Uiso  1.0000
 Cl4_A2_n109 Cl1-    0.261300    0.762900    0.217322    2.000000 Uiso  1.0000
 Cl5_A2_n109 Cl1-    0.738700    0.237100    0.216678    2.000000 Uiso  1.0000
 Cl6_A2_n109 Cl1-    0.261300    0.762900    0.216678    2.000000 Uiso  1.0000
 Li3_A2_n109 Li+    0.000000    0.500000    0.217000    2.000000 Uiso  0.2700
 Sc1_A2_n110_fault Sc3+    0.500000    0.333330    0.219000    2.000000 Uiso  1.0000
 Cl1_A2_n110_fault Cl1-    0.742100    1.102030    0.219000    2.000000 Uiso  1.0000
 Cl2_A2_n110_fault Cl1-    0.257900    0.564630    0.219000    2.000000 Uiso  1.0000
 Cl3_A2_n110_fault Cl1-    0.738700    0.570430    0.219322    2.000000 Uiso  1.0000
 Cl4_A2_n110_fault Cl1-    0.261300    1.096230    0.219322    2.000000 Uiso  1.0000
 Cl5_A2_n110_fault Cl1-    0.738700    0.570430    0.218678    2.000000 Uiso  1.0000
 Cl6_A2_n110_fault Cl1-    0.261300    1.096230    0.218678    2.000000 Uiso  1.0000
 Li3_A2_n110_fault Li+    0.000000    0.833330    0.219000    2.000000 Uiso  0.2700
 Sc1_A2_n111_fault Sc3+    0.500000    0.333330    0.221000    2.000000 Uiso  1.0000
 Cl1_A2_n111_fault Cl1-    0.742100    1.102030    0.221000    2.000000 Uiso  1.0000
 Cl2_A2_n111_fault Cl1-    0.257900    0.564630    0.221000    2.000000 Uiso  1.0000
 Cl3_A2_n111_fault Cl1-    0.738700    0.570430    0.221322    2.000000 Uiso  1.0000
 Cl4_A2_n111_fault Cl1-    0.261300    1.096230    0.221322    2.000000 Uiso  1.0000
 Cl5_A2_n111_fault Cl1-    0.738700    0.570430    0.220678    2.000000 Uiso  1.0000
 Cl6_A2_n111_fault Cl1-    0.261300    1.096230    0.220678    2.000000 Uiso  1.0000
 Li3_A2_n111_fault Li+    0.000000    0.833330    0.221000    2.000000 Uiso  0.2700
 Sc1_A2_n112_fault Sc3+    0.500000    0.333330    0.223000    2.000000 Uiso  1.0000
 Cl1_A2_n112_fault Cl1-    0.742100    1.102030    0.223000    2.000000 Uiso  1.0000
 Cl2_A2_n112_fault Cl1-    0.257900    0.564630    0.223000    2.000000 Uiso  1.0000
 Cl3_A2_n112_fault Cl1-    0.738700    0.570430    0.223322    2.000000 Uiso  1.0000
 Cl4_A2_n112_fault Cl1-    0.261300    1.096230    0.223322    2.000000 Uiso  1.0000
 Cl5_A2_n112_fault Cl1-    0.738700    0.570430    0.222678    2.000000 Uiso  1.0000
 Cl6_A2_n112_fault Cl1-    0.261300    1.096230    0.222678    2.000000 Uiso  1.0000
 Li3_A2_n112_fault Li+    0.000000    0.833330    0.223000    2.000000 Uiso  0.2700
 Sc1_A2_n113 Sc3+    0.500000    0.000000    0.225000    2.000000 Uiso  1.0000
 Cl1_A2_n113 Cl1-    0.742100    0.768700    0.225000    2.000000 Uiso  1.0000
 Cl2_A2_n113 Cl1-    0.257900    0.231300    0.225000    2.000000 Uiso  1.0000
 Cl3_A2_n113 Cl1-    0.738700    0.237100    0.225322    2.000000 Uiso  1.0000
 Cl4_A2_n113 Cl1-    0.261300    0.762900    0.225322    2.000000 Uiso  1.0000
 Cl5_A2_n113 Cl1-    0.738700    0.237100    0.224678    2.000000 Uiso  1.0000
 Cl6_A2_n113 Cl1-    0.261300    0.762900    0.224678    2.000000 Uiso  1.0000
 Li3_A2_n113 Li+    0.000000    0.500000    0.225000    2.000000 Uiso  0.2700
 Sc1_A2_n114 Sc3+    0.500000    0.000000    0.227000    2.000000 Uiso  1.0000
 Cl1_A2_n114 Cl1-    0.742100    0.768700    0.227000    2.000000 Uiso  1.0000
 Cl2_A2_n114 Cl1-    0.257900    0.231300    0.227000    2.000000 Uiso  1.0000
 Cl3_A2_n114 Cl1-    0.738700    0.237100    0.227322    2.000000 Uiso  1.0000
 Cl4_A2_n114 Cl1-    0.261300    0.762900    0.227322    2.000000 Uiso  1.0000
 Cl5_A2_n114 Cl1-    0.738700    0.237100    0.226678    2.000000 Uiso  1.0000
 Cl6_A2_n114 Cl1-    0.261300    0.762900    0.226678    2.000000 Uiso  1.0000
 Li3_A2_n114 Li+    0.000000    0.500000    0.227000    2.000000 Uiso  0.2700
 Sc1_A2_n115 Sc3+    0.500000    0.000000    0.229000    2.000000 Uiso  1.0000
 Cl1_A2_n115 Cl1-    0.742100    0.768700    0.229000    2.000000 Uiso  1.0000
 Cl2_A2_n115 Cl1-    0.257900    0.231300    0.229000    2.000000 Uiso  1.0000
 Cl3_A2_n115 Cl1-    0.738700    0.237100    0.229322    2.000000 Uiso  1.0000
 Cl4_A2_n115 Cl1-    0.261300    0.762900    0.229322    2.000000 Uiso  1.0000
 Cl5_A2_n115 Cl1-    0.738700    0.237100    0.228678    2.000000 Uiso  1.0000
 Cl6_A2_n115 Cl1-    0.261300    0.762900    0.228678    2.000000 Uiso  1.0000
 Li3_A2_n115 Li+    0.000000    0.500000    0.229000    2.000000 Uiso  0.2700
 Sc1_A2_n116 Sc3+    0.500000    0.000000    0.231000    2.000000 Uiso  1.0000
 Cl1_A2_n116 Cl1-    0.742100    0.768700    0.231000    2.000000 Uiso  1.0000
 Cl2_A2_n116 Cl1-    0.257900    0.231300    0.231000    2.000000 Uiso  1.0000
 Cl3_A2_n116 Cl1-    0.738700    0.237100    0.231322    2.000000 Uiso  1.0000
 Cl4_A2_n116 Cl1-    0.261300    0.762900    0.231322    2.000000 Uiso  1.0000
 Cl5_A2_n116 Cl1-    0.738700    0.237100    0.230678    2.000000 Uiso  1.0000
 Cl6_A2_n116 Cl1-    0.261300    0.762900    0.230678    2.000000 Uiso  1.0000
 Li3_A2_n116 Li+    0.000000    0.500000    0.231000    2.000000 Uiso  0.2700
 Sc1_A2_n117 Sc3+    0.500000    0.000000    0.233000    2.000000 Uiso  1.0000
 Cl1_A2_n117 Cl1-    0.742100    0.768700    0.233000    2.000000 Uiso  1.0000
 Cl2_A2_n117 Cl1-    0.257900    0.231300    0.233000    2.000000 Uiso  1.0000
 Cl3_A2_n117 Cl1-    0.738700    0.237100    0.233322    2.000000 Uiso  1.0000
 Cl4_A2_n117 Cl1-    0.261300    0.762900    0.233322    2.000000 Uiso  1.0000
 Cl5_A2_n117 Cl1-    0.738700    0.237100    0.232678    2.000000 Uiso  1.0000
 Cl6_A2_n117 Cl1-    0.261300    0.762900    0.232678    2.000000 Uiso  1.0000
 Li3_A2_n117 Li+    0.000000    0.500000    0.233000    2.000000 Uiso  0.2700
 Sc1_A2_n118 Sc3+    0.500000    0.000000    0.235000    2.000000 Uiso  1.0000
 Cl1_A2_n118 Cl1-    0.742100    0.768700    0.235000    2.000000 Uiso  1.0000
 Cl2_A2_n118 Cl1-    0.257900    0.231300    0.235000    2.000000 Uiso  1.0000
 Cl3_A2_n118 Cl1-    0.738700    0.237100    0.235322    2.000000 Uiso  1.0000
 Cl4_A2_n118 Cl1-    0.261300    0.762900    0.235322    2.000000 Uiso  1.0000
 Cl5_A2_n118 Cl1-    0.738700    0.237100    0.234678    2.000000 Uiso  1.0000
 Cl6_A2_n118 Cl1-    0.261300    0.762900    0.234678    2.000000 Uiso  1.0000
 Li3_A2_n118 Li+    0.000000    0.500000    0.235000    2.000000 Uiso  0.2700
 Sc1_A2_n119 Sc3+    0.500000    0.000000    0.237000    2.000000 Uiso  1.0000
 Cl1_A2_n119 Cl1-    0.742100    0.768700    0.237000    2.000000 Uiso  1.0000
 Cl2_A2_n119 Cl1-    0.257900    0.231300    0.237000    2.000000 Uiso  1.0000
 Cl3_A2_n119 Cl1-    0.738700    0.237100    0.237322    2.000000 Uiso  1.0000
 Cl4_A2_n119 Cl1-    0.261300    0.762900    0.237322    2.000000 Uiso  1.0000
 Cl5_A2_n119 Cl1-    0.738700    0.237100    0.236678    2.000000 Uiso  1.0000
 Cl6_A2_n119 Cl1-    0.261300    0.762900    0.236678    2.000000 Uiso  1.0000
 Li3_A2_n119 Li+    0.000000    0.500000    0.237000    2.000000 Uiso  0.2700
 Sc1_A2_n120 Sc3+    0.500000    0.000000    0.239000    2.000000 Uiso  1.0000
 Cl1_A2_n120 Cl1-    0.742100    0.768700    0.239000    2.000000 Uiso  1.0000
 Cl2_A2_n120 Cl1-    0.257900    0.231300    0.239000    2.000000 Uiso  1.0000
 Cl3_A2_n120 Cl1-    0.738700    0.237100    0.239322    2.000000 Uiso  1.0000
 Cl4_A2_n120 Cl1-    0.261300    0.762900    0.239322    2.000000 Uiso  1.0000
 Cl5_A2_n120 Cl1-    0.738700    0.237100    0.238678    2.000000 Uiso  1.0000
 Cl6_A2_n120 Cl1-    0.261300    0.762900    0.238678    2.000000 Uiso  1.0000
 Li3_A2_n120 Li+    0.000000    0.500000    0.239000    2.000000 Uiso  0.2700
 Sc1_A2_n121 Sc3+    0.500000    0.000000    0.241000    2.000000 Uiso  1.0000
 Cl1_A2_n121 Cl1-    0.742100    0.768700    0.241000    2.000000 Uiso  1.0000
 Cl2_A2_n121 Cl1-    0.257900    0.231300    0.241000    2.000000 Uiso  1.0000
 Cl3_A2_n121 Cl1-    0.738700    0.237100    0.241322    2.000000 Uiso  1.0000
 Cl4_A2_n121 Cl1-    0.261300    0.762900    0.241322    2.000000 Uiso  1.0000
 Cl5_A2_n121 Cl1-    0.738700    0.237100    0.240678    2.000000 Uiso  1.0000
 Cl6_A2_n121 Cl1-    0.261300    0.762900    0.240678    2.000000 Uiso  1.0000
 Li3_A2_n121 Li+    0.000000    0.500000    0.241000    2.000000 Uiso  0.2700
 Sc1_A2_n122_fault Sc3+    0.500000    0.333330    0.243000    2.000000 Uiso  1.0000
 Cl1_A2_n122_fault Cl1-    0.742100    1.102030    0.243000    2.000000 Uiso  1.0000
 Cl2_A2_n122_fault Cl1-    0.257900    0.564630    0.243000    2.000000 Uiso  1.0000
 Cl3_A2_n122_fault Cl1-    0.738700    0.570430    0.243322    2.000000 Uiso  1.0000
 Cl4_A2_n122_fault Cl1-    0.261300    1.096230    0.243322    2.000000 Uiso  1.0000
 Cl5_A2_n122_fault Cl1-    0.738700    0.570430    0.242678    2.000000 Uiso  1.0000
 Cl6_A2_n122_fault Cl1-    0.261300    1.096230    0.242678    2.000000 Uiso  1.0000
 Li3_A2_n122_fault Li+    0.000000    0.833330    0.243000    2.000000 Uiso  0.2700
 Sc1_A2_n123 Sc3+    0.500000    0.000000    0.245000    2.000000 Uiso  1.0000
 Cl1_A2_n123 Cl1-    0.742100    0.768700    0.245000    2.000000 Uiso  1.0000
 Cl2_A2_n123 Cl1-    0.257900    0.231300    0.245000    2.000000 Uiso  1.0000
 Cl3_A2_n123 Cl1-    0.738700    0.237100    0.245322    2.000000 Uiso  1.0000
 Cl4_A2_n123 Cl1-    0.261300    0.762900    0.245322    2.000000 Uiso  1.0000
 Cl5_A2_n123 Cl1-    0.738700    0.237100    0.244678    2.000000 Uiso  1.0000
 Cl6_A2_n123 Cl1-    0.261300    0.762900    0.244678    2.000000 Uiso  1.0000
 Li3_A2_n123 Li+    0.000000    0.500000    0.245000    2.000000 Uiso  0.2700
 Sc1_A2_n124_fault Sc3+    0.500000    0.333330    0.247000    2.000000 Uiso  1.0000
 Cl1_A2_n124_fault Cl1-    0.742100    1.102030    0.247000    2.000000 Uiso  1.0000
 Cl2_A2_n124_fault Cl1-    0.257900    0.564630    0.247000    2.000000 Uiso  1.0000
 Cl3_A2_n124_fault Cl1-    0.738700    0.570430    0.247322    2.000000 Uiso  1.0000
 Cl4_A2_n124_fault Cl1-    0.261300    1.096230    0.247322    2.000000 Uiso  1.0000
 Cl5_A2_n124_fault Cl1-    0.738700    0.570430    0.246678    2.000000 Uiso  1.0000
 Cl6_A2_n124_fault Cl1-    0.261300    1.096230    0.246678    2.000000 Uiso  1.0000
 Li3_A2_n124_fault Li+    0.000000    0.833330    0.247000    2.000000 Uiso  0.2700
 Sc1_A2_n125 Sc3+    0.500000    0.000000    0.249000    2.000000 Uiso  1.0000
 Cl1_A2_n125 Cl1-    0.742100    0.768700    0.249000    2.000000 Uiso  1.0000
 Cl2_A2_n125 Cl1-    0.257900    0.231300    0.249000    2.000000 Uiso  1.0000
 Cl3_A2_n125 Cl1-    0.738700    0.237100    0.249322    2.000000 Uiso  1.0000
 Cl4_A2_n125 Cl1-    0.261300    0.762900    0.249322    2.000000 Uiso  1.0000
 Cl5_A2_n125 Cl1-    0.738700    0.237100    0.248678    2.000000 Uiso  1.0000
 Cl6_A2_n125 Cl1-    0.261300    0.762900    0.248678    2.000000 Uiso  1.0000
 Li3_A2_n125 Li+    0.000000    0.500000    0.249000    2.000000 Uiso  0.2700
 Sc1_A2_n126 Sc3+    0.500000    0.000000    0.251000    2.000000 Uiso  1.0000
 Cl1_A2_n126 Cl1-    0.742100    0.768700    0.251000    2.000000 Uiso  1.0000
 Cl2_A2_n126 Cl1-    0.257900    0.231300    0.251000    2.000000 Uiso  1.0000
 Cl3_A2_n126 Cl1-    0.738700    0.237100    0.251322    2.000000 Uiso  1.0000
 Cl4_A2_n126 Cl1-    0.261300    0.762900    0.251322    2.000000 Uiso  1.0000
 Cl5_A2_n126 Cl1-    0.738700    0.237100    0.250678    2.000000 Uiso  1.0000
 Cl6_A2_n126 Cl1-    0.261300    0.762900    0.250678    2.000000 Uiso  1.0000
 Li3_A2_n126 Li+    0.000000    0.500000    0.251000    2.000000 Uiso  0.2700
 Sc1_A2_n127 Sc3+    0.500000    0.000000    0.253000    2.000000 Uiso  1.0000
 Cl1_A2_n127 Cl1-    0.742100    0.768700    0.253000    2.000000 Uiso  1.0000
 Cl2_A2_n127 Cl1-    0.257900    0.231300    0.253000    2.000000 Uiso  1.0000
 Cl3_A2_n127 Cl1-    0.738700    0.237100    0.253322    2.000000 Uiso  1.0000
 Cl4_A2_n127 Cl1-    0.261300    0.762900    0.253322    2.000000 Uiso  1.0000
 Cl5_A2_n127 Cl1-    0.738700    0.237100    0.252678    2.000000 Uiso  1.0000
 Cl6_A2_n127 Cl1-    0.261300    0.762900    0.252678    2.000000 Uiso  1.0000
 Li3_A2_n127 Li+    0.000000    0.500000    0.253000    2.000000 Uiso  0.2700
 Sc1_A2_n128_fault Sc3+    0.500000    0.333330    0.255000    2.000000 Uiso  1.0000
 Cl1_A2_n128_fault Cl1-    0.742100    1.102030    0.255000    2.000000 Uiso  1.0000
 Cl2_A2_n128_fault Cl1-    0.257900    0.564630    0.255000    2.000000 Uiso  1.0000
 Cl3_A2_n128_fault Cl1-    0.738700    0.570430    0.255322    2.000000 Uiso  1.0000
 Cl4_A2_n128_fault Cl1-    0.261300    1.096230    0.255322    2.000000 Uiso  1.0000
 Cl5_A2_n128_fault Cl1-    0.738700    0.570430    0.254678    2.000000 Uiso  1.0000
 Cl6_A2_n128_fault Cl1-    0.261300    1.096230    0.254678    2.000000 Uiso  1.0000
 Li3_A2_n128_fault Li+    0.000000    0.833330    0.255000    2.000000 Uiso  0.2700
 Sc1_A2_n129 Sc3+    0.500000    0.000000    0.257000    2.000000 Uiso  1.0000
 Cl1_A2_n129 Cl1-    0.742100    0.768700    0.257000    2.000000 Uiso  1.0000
 Cl2_A2_n129 Cl1-    0.257900    0.231300    0.257000    2.000000 Uiso  1.0000
 Cl3_A2_n129 Cl1-    0.738700    0.237100    0.257322    2.000000 Uiso  1.0000
 Cl4_A2_n129 Cl1-    0.261300    0.762900    0.257322    2.000000 Uiso  1.0000
 Cl5_A2_n129 Cl1-    0.738700    0.237100    0.256678    2.000000 Uiso  1.0000
 Cl6_A2_n129 Cl1-    0.261300    0.762900    0.256678    2.000000 Uiso  1.0000
 Li3_A2_n129 Li+    0.000000    0.500000    0.257000    2.000000 Uiso  0.2700
 Sc1_A2_n130 Sc3+    0.500000    0.000000    0.259000    2.000000 Uiso  1.0000
 Cl1_A2_n130 Cl1-    0.742100    0.768700    0.259000    2.000000 Uiso  1.0000
 Cl2_A2_n130 Cl1-    0.257900    0.231300    0.259000    2.000000 Uiso  1.0000
 Cl3_A2_n130 Cl1-    0.738700    0.237100    0.259322    2.000000 Uiso  1.0000
 Cl4_A2_n130 Cl1-    0.261300    0.762900    0.259322    2.000000 Uiso  1.0000
 Cl5_A2_n130 Cl1-    0.738700    0.237100    0.258678    2.000000 Uiso  1.0000
 Cl6_A2_n130 Cl1-    0.261300    0.762900    0.258678    2.000000 Uiso  1.0000
 Li3_A2_n130 Li+    0.000000    0.500000    0.259000    2.000000 Uiso  0.2700
 Sc1_A2_n131_fault Sc3+    0.500000    0.333330    0.261000    2.000000 Uiso  1.0000
 Cl1_A2_n131_fault Cl1-    0.742100    1.102030    0.261000    2.000000 Uiso  1.0000
 Cl2_A2_n131_fault Cl1-    0.257900    0.564630    0.261000    2.000000 Uiso  1.0000
 Cl3_A2_n131_fault Cl1-    0.738700    0.570430    0.261322    2.000000 Uiso  1.0000
 Cl4_A2_n131_fault Cl1-    0.261300    1.096230    0.261322    2.000000 Uiso  1.0000
 Cl5_A2_n131_fault Cl1-    0.738700    0.570430    0.260678    2.000000 Uiso  1.0000
 Cl6_A2_n131_fault Cl1-    0.261300    1.096230    0.260678    2.000000 Uiso  1.0000
 Li3_A2_n131_fault Li+    0.000000    0.833330    0.261000    2.000000 Uiso  0.2700
 Sc1_A2_n132 Sc3+    0.500000    0.000000    0.263000    2.000000 Uiso  1.0000
 Cl1_A2_n132 Cl1-    0.742100    0.768700    0.263000    2.000000 Uiso  1.0000
 Cl2_A2_n132 Cl1-    0.257900    0.231300    0.263000    2.000000 Uiso  1.0000
 Cl3_A2_n132 Cl1-    0.738700    0.237100    0.263322    2.000000 Uiso  1.0000
 Cl4_A2_n132 Cl1-    0.261300    0.762900    0.263322    2.000000 Uiso  1.0000
 Cl5_A2_n132 Cl1-    0.738700    0.237100    0.262678    2.000000 Uiso  1.0000
 Cl6_A2_n132 Cl1-    0.261300    0.762900    0.262678    2.000000 Uiso  1.0000
 Li3_A2_n132 Li+    0.000000    0.500000    0.263000    2.000000 Uiso  0.2700
 Sc1_A2_n133_fault Sc3+    0.500000    0.333330    0.265000    2.000000 Uiso  1.0000
 Cl1_A2_n133_fault Cl1-    0.742100    1.102030    0.265000    2.000000 Uiso  1.0000
 Cl2_A2_n133_fault Cl1-    0.257900    0.564630    0.265000    2.000000 Uiso  1.0000
 Cl3_A2_n133_fault Cl1-    0.738700    0.570430    0.265322    2.000000 Uiso  1.0000
 Cl4_A2_n133_fault Cl1-    0.261300    1.096230    0.265322    2.000000 Uiso  1.0000
 Cl5_A2_n133_fault Cl1-    0.738700    0.570430    0.264678    2.000000 Uiso  1.0000
 Cl6_A2_n133_fault Cl1-    0.261300    1.096230    0.264678    2.000000 Uiso  1.0000
 Li3_A2_n133_fault Li+    0.000000    0.833330    0.265000    2.000000 Uiso  0.2700
 Sc1_A2_n134 Sc3+    0.500000    0.000000    0.267000    2.000000 Uiso  1.0000
 Cl1_A2_n134 Cl1-    0.742100    0.768700    0.267000    2.000000 Uiso  1.0000
 Cl2_A2_n134 Cl1-    0.257900    0.231300    0.267000    2.000000 Uiso  1.0000
 Cl3_A2_n134 Cl1-    0.738700    0.237100    0.267322    2.000000 Uiso  1.0000
 Cl4_A2_n134 Cl1-    0.261300    0.762900    0.267322    2.000000 Uiso  1.0000
 Cl5_A2_n134 Cl1-    0.738700    0.237100    0.266678    2.000000 Uiso  1.0000
 Cl6_A2_n134 Cl1-    0.261300    0.762900    0.266678    2.000000 Uiso  1.0000
 Li3_A2_n134 Li+    0.000000    0.500000    0.267000    2.000000 Uiso  0.2700
 Sc1_A2_n135 Sc3+    0.500000    0.000000    0.269000    2.000000 Uiso  1.0000
 Cl1_A2_n135 Cl1-    0.742100    0.768700    0.269000    2.000000 Uiso  1.0000
 Cl2_A2_n135 Cl1-    0.257900    0.231300    0.269000    2.000000 Uiso  1.0000
 Cl3_A2_n135 Cl1-    0.738700    0.237100    0.269322    2.000000 Uiso  1.0000
 Cl4_A2_n135 Cl1-    0.261300    0.762900    0.269322    2.000000 Uiso  1.0000
 Cl5_A2_n135 Cl1-    0.738700    0.237100    0.268678    2.000000 Uiso  1.0000
 Cl6_A2_n135 Cl1-    0.261300    0.762900    0.268678    2.000000 Uiso  1.0000
 Li3_A2_n135 Li+    0.000000    0.500000    0.269000    2.000000 Uiso  0.2700
 Sc1_A2_n136_fault Sc3+    0.500000    0.333330    0.271000    2.000000 Uiso  1.0000
 Cl1_A2_n136_fault Cl1-    0.742100    1.102030    0.271000    2.000000 Uiso  1.0000
 Cl2_A2_n136_fault Cl1-    0.257900    0.564630    0.271000    2.000000 Uiso  1.0000
 Cl3_A2_n136_fault Cl1-    0.738700    0.570430    0.271322    2.000000 Uiso  1.0000
 Cl4_A2_n136_fault Cl1-    0.261300    1.096230    0.271322    2.000000 Uiso  1.0000
 Cl5_A2_n136_fault Cl1-    0.738700    0.570430    0.270678    2.000000 Uiso  1.0000
 Cl6_A2_n136_fault Cl1-    0.261300    1.096230    0.270678    2.000000 Uiso  1.0000
 Li3_A2_n136_fault Li+    0.000000    0.833330    0.271000    2.000000 Uiso  0.2700
 Sc1_A2_n137 Sc3+    0.500000    0.000000    0.273000    2.000000 Uiso  1.0000
 Cl1_A2_n137 Cl1-    0.742100    0.768700    0.273000    2.000000 Uiso  1.0000
 Cl2_A2_n137 Cl1-    0.257900    0.231300    0.273000    2.000000 Uiso  1.0000
 Cl3_A2_n137 Cl1-    0.738700    0.237100    0.273322    2.000000 Uiso  1.0000
 Cl4_A2_n137 Cl1-    0.261300    0.762900    0.273322    2.000000 Uiso  1.0000
 Cl5_A2_n137 Cl1-    0.738700    0.237100    0.272678    2.000000 Uiso  1.0000
 Cl6_A2_n137 Cl1-    0.261300    0.762900    0.272678    2.000000 Uiso  1.0000
 Li3_A2_n137 Li+    0.000000    0.500000    0.273000    2.000000 Uiso  0.2700
 Sc1_A2_n138 Sc3+    0.500000    0.000000    0.275000    2.000000 Uiso  1.0000
 Cl1_A2_n138 Cl1-    0.742100    0.768700    0.275000    2.000000 Uiso  1.0000
 Cl2_A2_n138 Cl1-    0.257900    0.231300    0.275000    2.000000 Uiso  1.0000
 Cl3_A2_n138 Cl1-    0.738700    0.237100    0.275322    2.000000 Uiso  1.0000
 Cl4_A2_n138 Cl1-    0.261300    0.762900    0.275322    2.000000 Uiso  1.0000
 Cl5_A2_n138 Cl1-    0.738700    0.237100    0.274678    2.000000 Uiso  1.0000
 Cl6_A2_n138 Cl1-    0.261300    0.762900    0.274678    2.000000 Uiso  1.0000
 Li3_A2_n138 Li+    0.000000    0.500000    0.275000    2.000000 Uiso  0.2700
 Sc1_A2_n139 Sc3+    0.500000    0.000000    0.277000    2.000000 Uiso  1.0000
 Cl1_A2_n139 Cl1-    0.742100    0.768700    0.277000    2.000000 Uiso  1.0000
 Cl2_A2_n139 Cl1-    0.257900    0.231300    0.277000    2.000000 Uiso  1.0000
 Cl3_A2_n139 Cl1-    0.738700    0.237100    0.277322    2.000000 Uiso  1.0000
 Cl4_A2_n139 Cl1-    0.261300    0.762900    0.277322    2.000000 Uiso  1.0000
 Cl5_A2_n139 Cl1-    0.738700    0.237100    0.276678    2.000000 Uiso  1.0000
 Cl6_A2_n139 Cl1-    0.261300    0.762900    0.276678    2.000000 Uiso  1.0000
 Li3_A2_n139 Li+    0.000000    0.500000    0.277000    2.000000 Uiso  0.2700
 Sc1_A2_n140_fault Sc3+    0.500000    0.333330    0.279000    2.000000 Uiso  1.0000
 Cl1_A2_n140_fault Cl1-    0.742100    1.102030    0.279000    2.000000 Uiso  1.0000
 Cl2_A2_n140_fault Cl1-    0.257900    0.564630    0.279000    2.000000 Uiso  1.0000
 Cl3_A2_n140_fault Cl1-    0.738700    0.570430    0.279322    2.000000 Uiso  1.0000
 Cl4_A2_n140_fault Cl1-    0.261300    1.096230    0.279322    2.000000 Uiso  1.0000
 Cl5_A2_n140_fault Cl1-    0.738700    0.570430    0.278678    2.000000 Uiso  1.0000
 Cl6_A2_n140_fault Cl1-    0.261300    1.096230    0.278678    2.000000 Uiso  1.0000
 Li3_A2_n140_fault Li+    0.000000    0.833330    0.279000    2.000000 Uiso  0.2700
 Sc1_A2_n141 Sc3+    0.500000    0.000000    0.281000    2.000000 Uiso  1.0000
 Cl1_A2_n141 Cl1-    0.742100    0.768700    0.281000    2.000000 Uiso  1.0000
 Cl2_A2_n141 Cl1-    0.257900    0.231300    0.281000    2.000000 Uiso  1.0000
 Cl3_A2_n141 Cl1-    0.738700    0.237100    0.281322    2.000000 Uiso  1.0000
 Cl4_A2_n141 Cl1-    0.261300    0.762900    0.281322    2.000000 Uiso  1.0000
 Cl5_A2_n141 Cl1-    0.738700    0.237100    0.280678    2.000000 Uiso  1.0000
 Cl6_A2_n141 Cl1-    0.261300    0.762900    0.280678    2.000000 Uiso  1.0000
 Li3_A2_n141 Li+    0.000000    0.500000    0.281000    2.000000 Uiso  0.2700
 Sc1_A2_n142 Sc3+    0.500000    0.000000    0.283000    2.000000 Uiso  1.0000
 Cl1_A2_n142 Cl1-    0.742100    0.768700    0.283000    2.000000 Uiso  1.0000
 Cl2_A2_n142 Cl1-    0.257900    0.231300    0.283000    2.000000 Uiso  1.0000
 Cl3_A2_n142 Cl1-    0.738700    0.237100    0.283322    2.000000 Uiso  1.0000
 Cl4_A2_n142 Cl1-    0.261300    0.762900    0.283322    2.000000 Uiso  1.0000
 Cl5_A2_n142 Cl1-    0.738700    0.237100    0.282678    2.000000 Uiso  1.0000
 Cl6_A2_n142 Cl1-    0.261300    0.762900    0.282678    2.000000 Uiso  1.0000
 Li3_A2_n142 Li+    0.000000    0.500000    0.283000    2.000000 Uiso  0.2700
 Sc1_A2_n143 Sc3+    0.500000    0.000000    0.285000    2.000000 Uiso  1.0000
 Cl1_A2_n143 Cl1-    0.742100    0.768700    0.285000    2.000000 Uiso  1.0000
 Cl2_A2_n143 Cl1-    0.257900    0.231300    0.285000    2.000000 Uiso  1.0000
 Cl3_A2_n143 Cl1-    0.738700    0.237100    0.285322    2.000000 Uiso  1.0000
 Cl4_A2_n143 Cl1-    0.261300    0.762900    0.285322    2.000000 Uiso  1.0000
 Cl5_A2_n143 Cl1-    0.738700    0.237100    0.284678    2.000000 Uiso  1.0000
 Cl6_A2_n143 Cl1-    0.261300    0.762900    0.284678    2.000000 Uiso  1.0000
 Li3_A2_n143 Li+    0.000000    0.500000    0.285000    2.000000 Uiso  0.2700
 Sc1_A2_n144 Sc3+    0.500000    0.000000    0.287000    2.000000 Uiso  1.0000
 Cl1_A2_n144 Cl1-    0.742100    0.768700    0.287000    2.000000 Uiso  1.0000
 Cl2_A2_n144 Cl1-    0.257900    0.231300    0.287000    2.000000 Uiso  1.0000
 Cl3_A2_n144 Cl1-    0.738700    0.237100    0.287322    2.000000 Uiso  1.0000
 Cl4_A2_n144 Cl1-    0.261300    0.762900    0.287322    2.000000 Uiso  1.0000
 Cl5_A2_n144 Cl1-    0.738700    0.237100    0.286678    2.000000 Uiso  1.0000
 Cl6_A2_n144 Cl1-    0.261300    0.762900    0.286678    2.000000 Uiso  1.0000
 Li3_A2_n144 Li+    0.000000    0.500000    0.287000    2.000000 Uiso  0.2700
 Sc1_A2_n145 Sc3+    0.500000    0.000000    0.289000    2.000000 Uiso  1.0000
 Cl1_A2_n145 Cl1-    0.742100    0.768700    0.289000    2.000000 Uiso  1.0000
 Cl2_A2_n145 Cl1-    0.257900    0.231300    0.289000    2.000000 Uiso  1.0000
 Cl3_A2_n145 Cl1-    0.738700    0.237100    0.289322    2.000000 Uiso  1.0000
 Cl4_A2_n145 Cl1-    0.261300    0.762900    0.289322    2.000000 Uiso  1.0000
 Cl5_A2_n145 Cl1-    0.738700    0.237100    0.288678    2.000000 Uiso  1.0000
 Cl6_A2_n145 Cl1-    0.261300    0.762900    0.288678    2.000000 Uiso  1.0000
 Li3_A2_n145 Li+    0.000000    0.500000    0.289000    2.000000 Uiso  0.2700
 Sc1_A2_n146 Sc3+    0.500000    0.000000    0.291000    2.000000 Uiso  1.0000
 Cl1_A2_n146 Cl1-    0.742100    0.768700    0.291000    2.000000 Uiso  1.0000
 Cl2_A2_n146 Cl1-    0.257900    0.231300    0.291000    2.000000 Uiso  1.0000
 Cl3_A2_n146 Cl1-    0.738700    0.237100    0.291322    2.000000 Uiso  1.0000
 Cl4_A2_n146 Cl1-    0.261300    0.762900    0.291322    2.000000 Uiso  1.0000
 Cl5_A2_n146 Cl1-    0.738700    0.237100    0.290678    2.000000 Uiso  1.0000
 Cl6_A2_n146 Cl1-    0.261300    0.762900    0.290678    2.000000 Uiso  1.0000
 Li3_A2_n146 Li+    0.000000    0.500000    0.291000    2.000000 Uiso  0.2700
 Sc1_A2_n147 Sc3+    0.500000    0.000000    0.293000    2.000000 Uiso  1.0000
 Cl1_A2_n147 Cl1-    0.742100    0.768700    0.293000    2.000000 Uiso  1.0000
 Cl2_A2_n147 Cl1-    0.257900    0.231300    0.293000    2.000000 Uiso  1.0000
 Cl3_A2_n147 Cl1-    0.738700    0.237100    0.293322    2.000000 Uiso  1.0000
 Cl4_A2_n147 Cl1-    0.261300    0.762900    0.293322    2.000000 Uiso  1.0000
 Cl5_A2_n147 Cl1-    0.738700    0.237100    0.292678    2.000000 Uiso  1.0000
 Cl6_A2_n147 Cl1-    0.261300    0.762900    0.292678    2.000000 Uiso  1.0000
 Li3_A2_n147 Li+    0.000000    0.500000    0.293000    2.000000 Uiso  0.2700
 Sc1_A2_n148_fault Sc3+    0.500000    0.333330    0.295000    2.000000 Uiso  1.0000
 Cl1_A2_n148_fault Cl1-    0.742100    1.102030    0.295000    2.000000 Uiso  1.0000
 Cl2_A2_n148_fault Cl1-    0.257900    0.564630    0.295000    2.000000 Uiso  1.0000
 Cl3_A2_n148_fault Cl1-    0.738700    0.570430    0.295322    2.000000 Uiso  1.0000
 Cl4_A2_n148_fault Cl1-    0.261300    1.096230    0.295322    2.000000 Uiso  1.0000
 Cl5_A2_n148_fault Cl1-    0.738700    0.570430    0.294678    2.000000 Uiso  1.0000
 Cl6_A2_n148_fault Cl1-    0.261300    1.096230    0.294678    2.000000 Uiso  1.0000
 Li3_A2_n148_fault Li+    0.000000    0.833330    0.295000    2.000000 Uiso  0.2700
 Sc1_A2_n149 Sc3+    0.500000    0.000000    0.297000    2.000000 Uiso  1.0000
 Cl1_A2_n149 Cl1-    0.742100    0.768700    0.297000    2.000000 Uiso  1.0000
 Cl2_A2_n149 Cl1-    0.257900    0.231300    0.297000    2.000000 Uiso  1.0000
 Cl3_A2_n149 Cl1-    0.738700    0.237100    0.297322    2.000000 Uiso  1.0000
 Cl4_A2_n149 Cl1-    0.261300    0.762900    0.297322    2.000000 Uiso  1.0000
 Cl5_A2_n149 Cl1-    0.738700    0.237100    0.296678    2.000000 Uiso  1.0000
 Cl6_A2_n149 Cl1-    0.261300    0.762900    0.296678    2.000000 Uiso  1.0000
 Li3_A2_n149 Li+    0.000000    0.500000    0.297000    2.000000 Uiso  0.2700
 Sc1_A2_n150 Sc3+    0.500000    0.000000    0.299000    2.000000 Uiso  1.0000
 Cl1_A2_n150 Cl1-    0.742100    0.768700    0.299000    2.000000 Uiso  1.0000
 Cl2_A2_n150 Cl1-    0.257900    0.231300    0.299000    2.000000 Uiso  1.0000
 Cl3_A2_n150 Cl1-    0.738700    0.237100    0.299322    2.000000 Uiso  1.0000
 Cl4_A2_n150 Cl1-    0.261300    0.762900    0.299322    2.000000 Uiso  1.0000
 Cl5_A2_n150 Cl1-    0.738700    0.237100    0.298678    2.000000 Uiso  1.0000
 Cl6_A2_n150 Cl1-    0.261300    0.762900    0.298678    2.000000 Uiso  1.0000
 Li3_A2_n150 Li+    0.000000    0.500000    0.299000    2.000000 Uiso  0.2700
 Sc1_A2_n151 Sc3+    0.500000    0.000000    0.301000    2.000000 Uiso  1.0000
 Cl1_A2_n151 Cl1-    0.742100    0.768700    0.301000    2.000000 Uiso  1.0000
 Cl2_A2_n151 Cl1-    0.257900    0.231300    0.301000    2.000000 Uiso  1.0000
 Cl3_A2_n151 Cl1-    0.738700    0.237100    0.301322    2.000000 Uiso  1.0000
 Cl4_A2_n151 Cl1-    0.261300    0.762900    0.301322    2.000000 Uiso  1.0000
 Cl5_A2_n151 Cl1-    0.738700    0.237100    0.300678    2.000000 Uiso  1.0000
 Cl6_A2_n151 Cl1-    0.261300    0.762900    0.300678    2.000000 Uiso  1.0000
 Li3_A2_n151 Li+    0.000000    0.500000    0.301000    2.000000 Uiso  0.2700
 Sc1_A2_n152 Sc3+    0.500000    0.000000    0.303000    2.000000 Uiso  1.0000
 Cl1_A2_n152 Cl1-    0.742100    0.768700    0.303000    2.000000 Uiso  1.0000
 Cl2_A2_n152 Cl1-    0.257900    0.231300    0.303000    2.000000 Uiso  1.0000
 Cl3_A2_n152 Cl1-    0.738700    0.237100    0.303322    2.000000 Uiso  1.0000
 Cl4_A2_n152 Cl1-    0.261300    0.762900    0.303322    2.000000 Uiso  1.0000
 Cl5_A2_n152 Cl1-    0.738700    0.237100    0.302678    2.000000 Uiso  1.0000
 Cl6_A2_n152 Cl1-    0.261300    0.762900    0.302678    2.000000 Uiso  1.0000
 Li3_A2_n152 Li+    0.000000    0.500000    0.303000    2.000000 Uiso  0.2700
 Sc1_A2_n153 Sc3+    0.500000    0.000000    0.305000    2.000000 Uiso  1.0000
 Cl1_A2_n153 Cl1-    0.742100    0.768700    0.305000    2.000000 Uiso  1.0000
 Cl2_A2_n153 Cl1-    0.257900    0.231300    0.305000    2.000000 Uiso  1.0000
 Cl3_A2_n153 Cl1-    0.738700    0.237100    0.305322    2.000000 Uiso  1.0000
 Cl4_A2_n153 Cl1-    0.261300    0.762900    0.305322    2.000000 Uiso  1.0000
 Cl5_A2_n153 Cl1-    0.738700    0.237100    0.304678    2.000000 Uiso  1.0000
 Cl6_A2_n153 Cl1-    0.261300    0.762900    0.304678    2.000000 Uiso  1.0000
 Li3_A2_n153 Li+    0.000000    0.500000    0.305000    2.000000 Uiso  0.2700
 Sc1_A2_n154 Sc3+    0.500000    0.000000    0.307000    2.000000 Uiso  1.0000
 Cl1_A2_n154 Cl1-    0.742100    0.768700    0.307000    2.000000 Uiso  1.0000
 Cl2_A2_n154 Cl1-    0.257900    0.231300    0.307000    2.000000 Uiso  1.0000
 Cl3_A2_n154 Cl1-    0.738700    0.237100    0.307322    2.000000 Uiso  1.0000
 Cl4_A2_n154 Cl1-    0.261300    0.762900    0.307322    2.000000 Uiso  1.0000
 Cl5_A2_n154 Cl1-    0.738700    0.237100    0.306678    2.000000 Uiso  1.0000
 Cl6_A2_n154 Cl1-    0.261300    0.762900    0.306678    2.000000 Uiso  1.0000
 Li3_A2_n154 Li+    0.000000    0.500000    0.307000    2.000000 Uiso  0.2700
 Sc1_A2_n155 Sc3+    0.500000    0.000000    0.309000    2.000000 Uiso  1.0000
 Cl1_A2_n155 Cl1-    0.742100    0.768700    0.309000    2.000000 Uiso  1.0000
 Cl2_A2_n155 Cl1-    0.257900    0.231300    0.309000    2.000000 Uiso  1.0000
 Cl3_A2_n155 Cl1-    0.738700    0.237100    0.309322    2.000000 Uiso  1.0000
 Cl4_A2_n155 Cl1-    0.261300    0.762900    0.309322    2.000000 Uiso  1.0000
 Cl5_A2_n155 Cl1-    0.738700    0.237100    0.308678    2.000000 Uiso  1.0000
 Cl6_A2_n155 Cl1-    0.261300    0.762900    0.308678    2.000000 Uiso  1.0000
 Li3_A2_n155 Li+    0.000000    0.500000    0.309000    2.000000 Uiso  0.2700
 Sc1_A2_n156 Sc3+    0.500000    0.000000    0.311000    2.000000 Uiso  1.0000
 Cl1_A2_n156 Cl1-    0.742100    0.768700    0.311000    2.000000 Uiso  1.0000
 Cl2_A2_n156 Cl1-    0.257900    0.231300    0.311000    2.000000 Uiso  1.0000
 Cl3_A2_n156 Cl1-    0.738700    0.237100    0.311322    2.000000 Uiso  1.0000
 Cl4_A2_n156 Cl1-    0.261300    0.762900    0.311322    2.000000 Uiso  1.0000
 Cl5_A2_n156 Cl1-    0.738700    0.237100    0.310678    2.000000 Uiso  1.0000
 Cl6_A2_n156 Cl1-    0.261300    0.762900    0.310678    2.000000 Uiso  1.0000
 Li3_A2_n156 Li+    0.000000    0.500000    0.311000    2.000000 Uiso  0.2700
 Sc1_A2_n157 Sc3+    0.500000    0.000000    0.313000    2.000000 Uiso  1.0000
 Cl1_A2_n157 Cl1-    0.742100    0.768700    0.313000    2.000000 Uiso  1.0000
 Cl2_A2_n157 Cl1-    0.257900    0.231300    0.313000    2.000000 Uiso  1.0000
 Cl3_A2_n157 Cl1-    0.738700    0.237100    0.313322    2.000000 Uiso  1.0000
 Cl4_A2_n157 Cl1-    0.261300    0.762900    0.313322    2.000000 Uiso  1.0000
 Cl5_A2_n157 Cl1-    0.738700    0.237100    0.312678    2.000000 Uiso  1.0000
 Cl6_A2_n157 Cl1-    0.261300    0.762900    0.312678    2.000000 Uiso  1.0000
 Li3_A2_n157 Li+    0.000000    0.500000    0.313000    2.000000 Uiso  0.2700
 Sc1_A2_n158 Sc3+    0.500000    0.000000    0.315000    2.000000 Uiso  1.0000
 Cl1_A2_n158 Cl1-    0.742100    0.768700    0.315000    2.000000 Uiso  1.0000
 Cl2_A2_n158 Cl1-    0.257900    0.231300    0.315000    2.000000 Uiso  1.0000
 Cl3_A2_n158 Cl1-    0.738700    0.237100    0.315322    2.000000 Uiso  1.0000
 Cl4_A2_n158 Cl1-    0.261300    0.762900    0.315322    2.000000 Uiso  1.0000
 Cl5_A2_n158 Cl1-    0.738700    0.237100    0.314678    2.000000 Uiso  1.0000
 Cl6_A2_n158 Cl1-    0.261300    0.762900    0.314678    2.000000 Uiso  1.0000
 Li3_A2_n158 Li+    0.000000    0.500000    0.315000    2.000000 Uiso  0.2700
 Sc1_A2_n159 Sc3+    0.500000    0.000000    0.317000    2.000000 Uiso  1.0000
 Cl1_A2_n159 Cl1-    0.742100    0.768700    0.317000    2.000000 Uiso  1.0000
 Cl2_A2_n159 Cl1-    0.257900    0.231300    0.317000    2.000000 Uiso  1.0000
 Cl3_A2_n159 Cl1-    0.738700    0.237100    0.317322    2.000000 Uiso  1.0000
 Cl4_A2_n159 Cl1-    0.261300    0.762900    0.317322    2.000000 Uiso  1.0000
 Cl5_A2_n159 Cl1-    0.738700    0.237100    0.316678    2.000000 Uiso  1.0000
 Cl6_A2_n159 Cl1-    0.261300    0.762900    0.316678    2.000000 Uiso  1.0000
 Li3_A2_n159 Li+    0.000000    0.500000    0.317000    2.000000 Uiso  0.2700
 Sc1_A2_n160 Sc3+    0.500000    0.000000    0.319000    2.000000 Uiso  1.0000
 Cl1_A2_n160 Cl1-    0.742100    0.768700    0.319000    2.000000 Uiso  1.0000
 Cl2_A2_n160 Cl1-    0.257900    0.231300    0.319000    2.000000 Uiso  1.0000
 Cl3_A2_n160 Cl1-    0.738700    0.237100    0.319322    2.000000 Uiso  1.0000
 Cl4_A2_n160 Cl1-    0.261300    0.762900    0.319322    2.000000 Uiso  1.0000
 Cl5_A2_n160 Cl1-    0.738700    0.237100    0.318678    2.000000 Uiso  1.0000
 Cl6_A2_n160 Cl1-    0.261300    0.762900    0.318678    2.000000 Uiso  1.0000
 Li3_A2_n160 Li+    0.000000    0.500000    0.319000    2.000000 Uiso  0.2700
 Sc1_A2_n161_fault Sc3+    0.500000    0.333330    0.321000    2.000000 Uiso  1.0000
 Cl1_A2_n161_fault Cl1-    0.742100    1.102030    0.321000    2.000000 Uiso  1.0000
 Cl2_A2_n161_fault Cl1-    0.257900    0.564630    0.321000    2.000000 Uiso  1.0000
 Cl3_A2_n161_fault Cl1-    0.738700    0.570430    0.321322    2.000000 Uiso  1.0000
 Cl4_A2_n161_fault Cl1-    0.261300    1.096230    0.321322    2.000000 Uiso  1.0000
 Cl5_A2_n161_fault Cl1-    0.738700    0.570430    0.320678    2.000000 Uiso  1.0000
 Cl6_A2_n161_fault Cl1-    0.261300    1.096230    0.320678    2.000000 Uiso  1.0000
 Li3_A2_n161_fault Li+    0.000000    0.833330    0.321000    2.000000 Uiso  0.2700
 Sc1_A2_n162 Sc3+    0.500000    0.000000    0.323000    2.000000 Uiso  1.0000
 Cl1_A2_n162 Cl1-    0.742100    0.768700    0.323000    2.000000 Uiso  1.0000
 Cl2_A2_n162 Cl1-    0.257900    0.231300    0.323000    2.000000 Uiso  1.0000
 Cl3_A2_n162 Cl1-    0.738700    0.237100    0.323322    2.000000 Uiso  1.0000
 Cl4_A2_n162 Cl1-    0.261300    0.762900    0.323322    2.000000 Uiso  1.0000
 Cl5_A2_n162 Cl1-    0.738700    0.237100    0.322678    2.000000 Uiso  1.0000
 Cl6_A2_n162 Cl1-    0.261300    0.762900    0.322678    2.000000 Uiso  1.0000
 Li3_A2_n162 Li+    0.000000    0.500000    0.323000    2.000000 Uiso  0.2700
 Sc1_A2_n163_fault Sc3+    0.500000    0.333330    0.325000    2.000000 Uiso  1.0000
 Cl1_A2_n163_fault Cl1-    0.742100    1.102030    0.325000    2.000000 Uiso  1.0000
 Cl2_A2_n163_fault Cl1-    0.257900    0.564630    0.325000    2.000000 Uiso  1.0000
 Cl3_A2_n163_fault Cl1-    0.738700    0.570430    0.325322    2.000000 Uiso  1.0000
 Cl4_A2_n163_fault Cl1-    0.261300    1.096230    0.325322    2.000000 Uiso  1.0000
 Cl5_A2_n163_fault Cl1-    0.738700    0.570430    0.324678    2.000000 Uiso  1.0000
 Cl6_A2_n163_fault Cl1-    0.261300    1.096230    0.324678    2.000000 Uiso  1.0000
 Li3_A2_n163_fault Li+    0.000000    0.833330    0.325000    2.000000 Uiso  0.2700
 Sc1_A2_n164 Sc3+    0.500000    0.000000    0.327000    2.000000 Uiso  1.0000
 Cl1_A2_n164 Cl1-    0.742100    0.768700    0.327000    2.000000 Uiso  1.0000
 Cl2_A2_n164 Cl1-    0.257900    0.231300    0.327000    2.000000 Uiso  1.0000
 Cl3_A2_n164 Cl1-    0.738700    0.237100    0.327322    2.000000 Uiso  1.0000
 Cl4_A2_n164 Cl1-    0.261300    0.762900    0.327322    2.000000 Uiso  1.0000
 Cl5_A2_n164 Cl1-    0.738700    0.237100    0.326678    2.000000 Uiso  1.0000
 Cl6_A2_n164 Cl1-    0.261300    0.762900    0.326678    2.000000 Uiso  1.0000
 Li3_A2_n164 Li+    0.000000    0.500000    0.327000    2.000000 Uiso  0.2700
 Sc1_A2_n165 Sc3+    0.500000    0.000000    0.329000    2.000000 Uiso  1.0000
 Cl1_A2_n165 Cl1-    0.742100    0.768700    0.329000    2.000000 Uiso  1.0000
 Cl2_A2_n165 Cl1-    0.257900    0.231300    0.329000    2.000000 Uiso  1.0000
 Cl3_A2_n165 Cl1-    0.738700    0.237100    0.329322    2.000000 Uiso  1.0000
 Cl4_A2_n165 Cl1-    0.261300    0.762900    0.329322    2.000000 Uiso  1.0000
 Cl5_A2_n165 Cl1-    0.738700    0.237100    0.328678    2.000000 Uiso  1.0000
 Cl6_A2_n165 Cl1-    0.261300    0.762900    0.328678    2.000000 Uiso  1.0000
 Li3_A2_n165 Li+    0.000000    0.500000    0.329000    2.000000 Uiso  0.2700
 Sc1_A2_n166 Sc3+    0.500000    0.000000    0.331000    2.000000 Uiso  1.0000
 Cl1_A2_n166 Cl1-    0.742100    0.768700    0.331000    2.000000 Uiso  1.0000
 Cl2_A2_n166 Cl1-    0.257900    0.231300    0.331000    2.000000 Uiso  1.0000
 Cl3_A2_n166 Cl1-    0.738700    0.237100    0.331322    2.000000 Uiso  1.0000
 Cl4_A2_n166 Cl1-    0.261300    0.762900    0.331322    2.000000 Uiso  1.0000
 Cl5_A2_n166 Cl1-    0.738700    0.237100    0.330678    2.000000 Uiso  1.0000
 Cl6_A2_n166 Cl1-    0.261300    0.762900    0.330678    2.000000 Uiso  1.0000
 Li3_A2_n166 Li+    0.000000    0.500000    0.331000    2.000000 Uiso  0.2700
 Sc1_A2_n167 Sc3+    0.500000    0.000000    0.333000    2.000000 Uiso  1.0000
 Cl1_A2_n167 Cl1-    0.742100    0.768700    0.333000    2.000000 Uiso  1.0000
 Cl2_A2_n167 Cl1-    0.257900    0.231300    0.333000    2.000000 Uiso  1.0000
 Cl3_A2_n167 Cl1-    0.738700    0.237100    0.333322    2.000000 Uiso  1.0000
 Cl4_A2_n167 Cl1-    0.261300    0.762900    0.333322    2.000000 Uiso  1.0000
 Cl5_A2_n167 Cl1-    0.738700    0.237100    0.332678    2.000000 Uiso  1.0000
 Cl6_A2_n167 Cl1-    0.261300    0.762900    0.332678    2.000000 Uiso  1.0000
 Li3_A2_n167 Li+    0.000000    0.500000    0.333000    2.000000 Uiso  0.2700
 Sc1_A2_n168 Sc3+    0.500000    0.000000    0.335000    2.000000 Uiso  1.0000
 Cl1_A2_n168 Cl1-    0.742100    0.768700    0.335000    2.000000 Uiso  1.0000
 Cl2_A2_n168 Cl1-    0.257900    0.231300    0.335000    2.000000 Uiso  1.0000
 Cl3_A2_n168 Cl1-    0.738700    0.237100    0.335322    2.000000 Uiso  1.0000
 Cl4_A2_n168 Cl1-    0.261300    0.762900    0.335322    2.000000 Uiso  1.0000
 Cl5_A2_n168 Cl1-    0.738700    0.237100    0.334678    2.000000 Uiso  1.0000
 Cl6_A2_n168 Cl1-    0.261300    0.762900    0.334678    2.000000 Uiso  1.0000
 Li3_A2_n168 Li+    0.000000    0.500000    0.335000    2.000000 Uiso  0.2700
 Sc1_A2_n169 Sc3+    0.500000    0.000000    0.337000    2.000000 Uiso  1.0000
 Cl1_A2_n169 Cl1-    0.742100    0.768700    0.337000    2.000000 Uiso  1.0000
 Cl2_A2_n169 Cl1-    0.257900    0.231300    0.337000    2.000000 Uiso  1.0000
 Cl3_A2_n169 Cl1-    0.738700    0.237100    0.337322    2.000000 Uiso  1.0000
 Cl4_A2_n169 Cl1-    0.261300    0.762900    0.337322    2.000000 Uiso  1.0000
 Cl5_A2_n169 Cl1-    0.738700    0.237100    0.336678    2.000000 Uiso  1.0000
 Cl6_A2_n169 Cl1-    0.261300    0.762900    0.336678    2.000000 Uiso  1.0000
 Li3_A2_n169 Li+    0.000000    0.500000    0.337000    2.000000 Uiso  0.2700
 Sc1_A2_n170 Sc3+    0.500000    0.000000    0.339000    2.000000 Uiso  1.0000
 Cl1_A2_n170 Cl1-    0.742100    0.768700    0.339000    2.000000 Uiso  1.0000
 Cl2_A2_n170 Cl1-    0.257900    0.231300    0.339000    2.000000 Uiso  1.0000
 Cl3_A2_n170 Cl1-    0.738700    0.237100    0.339322    2.000000 Uiso  1.0000
 Cl4_A2_n170 Cl1-    0.261300    0.762900    0.339322    2.000000 Uiso  1.0000
 Cl5_A2_n170 Cl1-    0.738700    0.237100    0.338678    2.000000 Uiso  1.0000
 Cl6_A2_n170 Cl1-    0.261300    0.762900    0.338678    2.000000 Uiso  1.0000
 Li3_A2_n170 Li+    0.000000    0.500000    0.339000    2.000000 Uiso  0.2700
 Sc1_A2_n171 Sc3+    0.500000    0.000000    0.341000    2.000000 Uiso  1.0000
 Cl1_A2_n171 Cl1-    0.742100    0.768700    0.341000    2.000000 Uiso  1.0000
 Cl2_A2_n171 Cl1-    0.257900    0.231300    0.341000    2.000000 Uiso  1.0000
 Cl3_A2_n171 Cl1-    0.738700    0.237100    0.341322    2.000000 Uiso  1.0000
 Cl4_A2_n171 Cl1-    0.261300    0.762900    0.341322    2.000000 Uiso  1.0000
 Cl5_A2_n171 Cl1-    0.738700    0.237100    0.340678    2.000000 Uiso  1.0000
 Cl6_A2_n171 Cl1-    0.261300    0.762900    0.340678    2.000000 Uiso  1.0000
 Li3_A2_n171 Li+    0.000000    0.500000    0.341000    2.000000 Uiso  0.2700
 Sc1_A2_n172 Sc3+    0.500000    0.000000    0.343000    2.000000 Uiso  1.0000
 Cl1_A2_n172 Cl1-    0.742100    0.768700    0.343000    2.000000 Uiso  1.0000
 Cl2_A2_n172 Cl1-    0.257900    0.231300    0.343000    2.000000 Uiso  1.0000
 Cl3_A2_n172 Cl1-    0.738700    0.237100    0.343322    2.000000 Uiso  1.0000
 Cl4_A2_n172 Cl1-    0.261300    0.762900    0.343322    2.000000 Uiso  1.0000
 Cl5_A2_n172 Cl1-    0.738700    0.237100    0.342678    2.000000 Uiso  1.0000
 Cl6_A2_n172 Cl1-    0.261300    0.762900    0.342678    2.000000 Uiso  1.0000
 Li3_A2_n172 Li+    0.000000    0.500000    0.343000    2.000000 Uiso  0.2700
 Sc1_A2_n173 Sc3+    0.500000    0.000000    0.345000    2.000000 Uiso  1.0000
 Cl1_A2_n173 Cl1-    0.742100    0.768700    0.345000    2.000000 Uiso  1.0000
 Cl2_A2_n173 Cl1-    0.257900    0.231300    0.345000    2.000000 Uiso  1.0000
 Cl3_A2_n173 Cl1-    0.738700    0.237100    0.345322    2.000000 Uiso  1.0000
 Cl4_A2_n173 Cl1-    0.261300    0.762900    0.345322    2.000000 Uiso  1.0000
 Cl5_A2_n173 Cl1-    0.738700    0.237100    0.344678    2.000000 Uiso  1.0000
 Cl6_A2_n173 Cl1-    0.261300    0.762900    0.344678    2.000000 Uiso  1.0000
 Li3_A2_n173 Li+    0.000000    0.500000    0.345000    2.000000 Uiso  0.2700
 Sc1_A2_n174 Sc3+    0.500000    0.000000    0.347000    2.000000 Uiso  1.0000
 Cl1_A2_n174 Cl1-    0.742100    0.768700    0.347000    2.000000 Uiso  1.0000
 Cl2_A2_n174 Cl1-    0.257900    0.231300    0.347000    2.000000 Uiso  1.0000
 Cl3_A2_n174 Cl1-    0.738700    0.237100    0.347322    2.000000 Uiso  1.0000
 Cl4_A2_n174 Cl1-    0.261300    0.762900    0.347322    2.000000 Uiso  1.0000
 Cl5_A2_n174 Cl1-    0.738700    0.237100    0.346678    2.000000 Uiso  1.0000
 Cl6_A2_n174 Cl1-    0.261300    0.762900    0.346678    2.000000 Uiso  1.0000
 Li3_A2_n174 Li+    0.000000    0.500000    0.347000    2.000000 Uiso  0.2700
 Sc1_A2_n175 Sc3+    0.500000    0.000000    0.349000    2.000000 Uiso  1.0000
 Cl1_A2_n175 Cl1-    0.742100    0.768700    0.349000    2.000000 Uiso  1.0000
 Cl2_A2_n175 Cl1-    0.257900    0.231300    0.349000    2.000000 Uiso  1.0000
 Cl3_A2_n175 Cl1-    0.738700    0.237100    0.349322    2.000000 Uiso  1.0000
 Cl4_A2_n175 Cl1-    0.261300    0.762900    0.349322    2.000000 Uiso  1.0000
 Cl5_A2_n175 Cl1-    0.738700    0.237100    0.348678    2.000000 Uiso  1.0000
 Cl6_A2_n175 Cl1-    0.261300    0.762900    0.348678    2.000000 Uiso  1.0000
 Li3_A2_n175 Li+    0.000000    0.500000    0.349000    2.000000 Uiso  0.2700
 Sc1_A2_n176 Sc3+    0.500000    0.000000    0.351000    2.000000 Uiso  1.0000
 Cl1_A2_n176 Cl1-    0.742100    0.768700    0.351000    2.000000 Uiso  1.0000
 Cl2_A2_n176 Cl1-    0.257900    0.231300    0.351000    2.000000 Uiso  1.0000
 Cl3_A2_n176 Cl1-    0.738700    0.237100    0.351322    2.000000 Uiso  1.0000
 Cl4_A2_n176 Cl1-    0.261300    0.762900    0.351322    2.000000 Uiso  1.0000
 Cl5_A2_n176 Cl1-    0.738700    0.237100    0.350678    2.000000 Uiso  1.0000
 Cl6_A2_n176 Cl1-    0.261300    0.762900    0.350678    2.000000 Uiso  1.0000
 Li3_A2_n176 Li+    0.000000    0.500000    0.351000    2.000000 Uiso  0.2700
 Sc1_A2_n177 Sc3+    0.500000    0.000000    0.353000    2.000000 Uiso  1.0000
 Cl1_A2_n177 Cl1-    0.742100    0.768700    0.353000    2.000000 Uiso  1.0000
 Cl2_A2_n177 Cl1-    0.257900    0.231300    0.353000    2.000000 Uiso  1.0000
 Cl3_A2_n177 Cl1-    0.738700    0.237100    0.353322    2.000000 Uiso  1.0000
 Cl4_A2_n177 Cl1-    0.261300    0.762900    0.353322    2.000000 Uiso  1.0000
 Cl5_A2_n177 Cl1-    0.738700    0.237100    0.352678    2.000000 Uiso  1.0000
 Cl6_A2_n177 Cl1-    0.261300    0.762900    0.352678    2.000000 Uiso  1.0000
 Li3_A2_n177 Li+    0.000000    0.500000    0.353000    2.000000 Uiso  0.2700
 Sc1_A2_n178 Sc3+    0.500000    0.000000    0.355000    2.000000 Uiso  1.0000
 Cl1_A2_n178 Cl1-    0.742100    0.768700    0.355000    2.000000 Uiso  1.0000
 Cl2_A2_n178 Cl1-    0.257900    0.231300    0.355000    2.000000 Uiso  1.0000
 Cl3_A2_n178 Cl1-    0.738700    0.237100    0.355322    2.000000 Uiso  1.0000
 Cl4_A2_n178 Cl1-    0.261300    0.762900    0.355322    2.000000 Uiso  1.0000
 Cl5_A2_n178 Cl1-    0.738700    0.237100    0.354678    2.000000 Uiso  1.0000
 Cl6_A2_n178 Cl1-    0.261300    0.762900    0.354678    2.000000 Uiso  1.0000
 Li3_A2_n178 Li+    0.000000    0.500000    0.355000    2.000000 Uiso  0.2700
 Sc1_A2_n179 Sc3+    0.500000    0.000000    0.357000    2.000000 Uiso  1.0000
 Cl1_A2_n179 Cl1-    0.742100    0.768700    0.357000    2.000000 Uiso  1.0000
 Cl2_A2_n179 Cl1-    0.257900    0.231300    0.357000    2.000000 Uiso  1.0000
 Cl3_A2_n179 Cl1-    0.738700    0.237100    0.357322    2.000000 Uiso  1.0000
 Cl4_A2_n179 Cl1-    0.261300    0.762900    0.357322    2.000000 Uiso  1.0000
 Cl5_A2_n179 Cl1-    0.738700    0.237100    0.356678    2.000000 Uiso  1.0000
 Cl6_A2_n179 Cl1-    0.261300    0.762900    0.356678    2.000000 Uiso  1.0000
 Li3_A2_n179 Li+    0.000000    0.500000    0.357000    2.000000 Uiso  0.2700
 Sc1_A2_n180 Sc3+    0.500000    0.000000    0.359000    2.000000 Uiso  1.0000
 Cl1_A2_n180 Cl1-    0.742100    0.768700    0.359000    2.000000 Uiso  1.0000
 Cl2_A2_n180 Cl1-    0.257900    0.231300    0.359000    2.000000 Uiso  1.0000
 Cl3_A2_n180 Cl1-    0.738700    0.237100    0.359322    2.000000 Uiso  1.0000
 Cl4_A2_n180 Cl1-    0.261300    0.762900    0.359322    2.000000 Uiso  1.0000
 Cl5_A2_n180 Cl1-    0.738700    0.237100    0.358678    2.000000 Uiso  1.0000
 Cl6_A2_n180 Cl1-    0.261300    0.762900    0.358678    2.000000 Uiso  1.0000
 Li3_A2_n180 Li+    0.000000    0.500000    0.359000    2.000000 Uiso  0.2700
 Sc1_A2_n181 Sc3+    0.500000    0.000000    0.361000    2.000000 Uiso  1.0000
 Cl1_A2_n181 Cl1-    0.742100    0.768700    0.361000    2.000000 Uiso  1.0000
 Cl2_A2_n181 Cl1-    0.257900    0.231300    0.361000    2.000000 Uiso  1.0000
 Cl3_A2_n181 Cl1-    0.738700    0.237100    0.361322    2.000000 Uiso  1.0000
 Cl4_A2_n181 Cl1-    0.261300    0.762900    0.361322    2.000000 Uiso  1.0000
 Cl5_A2_n181 Cl1-    0.738700    0.237100    0.360678    2.000000 Uiso  1.0000
 Cl6_A2_n181 Cl1-    0.261300    0.762900    0.360678    2.000000 Uiso  1.0000
 Li3_A2_n181 Li+    0.000000    0.500000    0.361000    2.000000 Uiso  0.2700
 Sc1_A2_n182 Sc3+    0.500000    0.000000    0.363000    2.000000 Uiso  1.0000
 Cl1_A2_n182 Cl1-    0.742100    0.768700    0.363000    2.000000 Uiso  1.0000
 Cl2_A2_n182 Cl1-    0.257900    0.231300    0.363000    2.000000 Uiso  1.0000
 Cl3_A2_n182 Cl1-    0.738700    0.237100    0.363322    2.000000 Uiso  1.0000
 Cl4_A2_n182 Cl1-    0.261300    0.762900    0.363322    2.000000 Uiso  1.0000
 Cl5_A2_n182 Cl1-    0.738700    0.237100    0.362678    2.000000 Uiso  1.0000
 Cl6_A2_n182 Cl1-    0.261300    0.762900    0.362678    2.000000 Uiso  1.0000
 Li3_A2_n182 Li+    0.000000    0.500000    0.363000    2.000000 Uiso  0.2700
 Sc1_A2_n183 Sc3+    0.500000    0.000000    0.365000    2.000000 Uiso  1.0000
 Cl1_A2_n183 Cl1-    0.742100    0.768700    0.365000    2.000000 Uiso  1.0000
 Cl2_A2_n183 Cl1-    0.257900    0.231300    0.365000    2.000000 Uiso  1.0000
 Cl3_A2_n183 Cl1-    0.738700    0.237100    0.365322    2.000000 Uiso  1.0000
 Cl4_A2_n183 Cl1-    0.261300    0.762900    0.365322    2.000000 Uiso  1.0000
 Cl5_A2_n183 Cl1-    0.738700    0.237100    0.364678    2.000000 Uiso  1.0000
 Cl6_A2_n183 Cl1-    0.261300    0.762900    0.364678    2.000000 Uiso  1.0000
 Li3_A2_n183 Li+    0.000000    0.500000    0.365000    2.000000 Uiso  0.2700
 Sc1_A2_n184 Sc3+    0.500000    0.000000    0.367000    2.000000 Uiso  1.0000
 Cl1_A2_n184 Cl1-    0.742100    0.768700    0.367000    2.000000 Uiso  1.0000
 Cl2_A2_n184 Cl1-    0.257900    0.231300    0.367000    2.000000 Uiso  1.0000
 Cl3_A2_n184 Cl1-    0.738700    0.237100    0.367322    2.000000 Uiso  1.0000
 Cl4_A2_n184 Cl1-    0.261300    0.762900    0.367322    2.000000 Uiso  1.0000
 Cl5_A2_n184 Cl1-    0.738700    0.237100    0.366678    2.000000 Uiso  1.0000
 Cl6_A2_n184 Cl1-    0.261300    0.762900    0.366678    2.000000 Uiso  1.0000
 Li3_A2_n184 Li+    0.000000    0.500000    0.367000    2.000000 Uiso  0.2700
 Sc1_A2_n185 Sc3+    0.500000    0.000000    0.369000    2.000000 Uiso  1.0000
 Cl1_A2_n185 Cl1-    0.742100    0.768700    0.369000    2.000000 Uiso  1.0000
 Cl2_A2_n185 Cl1-    0.257900    0.231300    0.369000    2.000000 Uiso  1.0000
 Cl3_A2_n185 Cl1-    0.738700    0.237100    0.369322    2.000000 Uiso  1.0000
 Cl4_A2_n185 Cl1-    0.261300    0.762900    0.369322    2.000000 Uiso  1.0000
 Cl5_A2_n185 Cl1-    0.738700    0.237100    0.368678    2.000000 Uiso  1.0000
 Cl6_A2_n185 Cl1-    0.261300    0.762900    0.368678    2.000000 Uiso  1.0000
 Li3_A2_n185 Li+    0.000000    0.500000    0.369000    2.000000 Uiso  0.2700
 Sc1_A2_n186_fault Sc3+    0.500000    0.333330    0.371000    2.000000 Uiso  1.0000
 Cl1_A2_n186_fault Cl1-    0.742100    1.102030    0.371000    2.000000 Uiso  1.0000
 Cl2_A2_n186_fault Cl1-    0.257900    0.564630    0.371000    2.000000 Uiso  1.0000
 Cl3_A2_n186_fault Cl1-    0.738700    0.570430    0.371322    2.000000 Uiso  1.0000
 Cl4_A2_n186_fault Cl1-    0.261300    1.096230    0.371322    2.000000 Uiso  1.0000
 Cl5_A2_n186_fault Cl1-    0.738700    0.570430    0.370678    2.000000 Uiso  1.0000
 Cl6_A2_n186_fault Cl1-    0.261300    1.096230    0.370678    2.000000 Uiso  1.0000
 Li3_A2_n186_fault Li+    0.000000    0.833330    0.371000    2.000000 Uiso  0.2700
 Sc1_A2_n187 Sc3+    0.500000    0.000000    0.373000    2.000000 Uiso  1.0000
 Cl1_A2_n187 Cl1-    0.742100    0.768700    0.373000    2.000000 Uiso  1.0000
 Cl2_A2_n187 Cl1-    0.257900    0.231300    0.373000    2.000000 Uiso  1.0000
 Cl3_A2_n187 Cl1-    0.738700    0.237100    0.373322    2.000000 Uiso  1.0000
 Cl4_A2_n187 Cl1-    0.261300    0.762900    0.373322    2.000000 Uiso  1.0000
 Cl5_A2_n187 Cl1-    0.738700    0.237100    0.372678    2.000000 Uiso  1.0000
 Cl6_A2_n187 Cl1-    0.261300    0.762900    0.372678    2.000000 Uiso  1.0000
 Li3_A2_n187 Li+    0.000000    0.500000    0.373000    2.000000 Uiso  0.2700
 Sc1_A2_n188 Sc3+    0.500000    0.000000    0.375000    2.000000 Uiso  1.0000
 Cl1_A2_n188 Cl1-    0.742100    0.768700    0.375000    2.000000 Uiso  1.0000
 Cl2_A2_n188 Cl1-    0.257900    0.231300    0.375000    2.000000 Uiso  1.0000
 Cl3_A2_n188 Cl1-    0.738700    0.237100    0.375322    2.000000 Uiso  1.0000
 Cl4_A2_n188 Cl1-    0.261300    0.762900    0.375322    2.000000 Uiso  1.0000
 Cl5_A2_n188 Cl1-    0.738700    0.237100    0.374678    2.000000 Uiso  1.0000
 Cl6_A2_n188 Cl1-    0.261300    0.762900    0.374678    2.000000 Uiso  1.0000
 Li3_A2_n188 Li+    0.000000    0.500000    0.375000    2.000000 Uiso  0.2700
 Sc1_A2_n189 Sc3+    0.500000    0.000000    0.377000    2.000000 Uiso  1.0000
 Cl1_A2_n189 Cl1-    0.742100    0.768700    0.377000    2.000000 Uiso  1.0000
 Cl2_A2_n189 Cl1-    0.257900    0.231300    0.377000    2.000000 Uiso  1.0000
 Cl3_A2_n189 Cl1-    0.738700    0.237100    0.377322    2.000000 Uiso  1.0000
 Cl4_A2_n189 Cl1-    0.261300    0.762900    0.377322    2.000000 Uiso  1.0000
 Cl5_A2_n189 Cl1-    0.738700    0.237100    0.376678    2.000000 Uiso  1.0000
 Cl6_A2_n189 Cl1-    0.261300    0.762900    0.376678    2.000000 Uiso  1.0000
 Li3_A2_n189 Li+    0.000000    0.500000    0.377000    2.000000 Uiso  0.2700
 Sc1_A2_n190_fault Sc3+    0.500000    0.333330    0.379000    2.000000 Uiso  1.0000
 Cl1_A2_n190_fault Cl1-    0.742100    1.102030    0.379000    2.000000 Uiso  1.0000
 Cl2_A2_n190_fault Cl1-    0.257900    0.564630    0.379000    2.000000 Uiso  1.0000
 Cl3_A2_n190_fault Cl1-    0.738700    0.570430    0.379322    2.000000 Uiso  1.0000
 Cl4_A2_n190_fault Cl1-    0.261300    1.096230    0.379322    2.000000 Uiso  1.0000
 Cl5_A2_n190_fault Cl1-    0.738700    0.570430    0.378678    2.000000 Uiso  1.0000
 Cl6_A2_n190_fault Cl1-    0.261300    1.096230    0.378678    2.000000 Uiso  1.0000
 Li3_A2_n190_fault Li+    0.000000    0.833330    0.379000    2.000000 Uiso  0.2700
 Sc1_A2_n191 Sc3+    0.500000    0.000000    0.381000    2.000000 Uiso  1.0000
 Cl1_A2_n191 Cl1-    0.742100    0.768700    0.381000    2.000000 Uiso  1.0000
 Cl2_A2_n191 Cl1-    0.257900    0.231300    0.381000    2.000000 Uiso  1.0000
 Cl3_A2_n191 Cl1-    0.738700    0.237100    0.381322    2.000000 Uiso  1.0000
 Cl4_A2_n191 Cl1-    0.261300    0.762900    0.381322    2.000000 Uiso  1.0000
 Cl5_A2_n191 Cl1-    0.738700    0.237100    0.380678    2.000000 Uiso  1.0000
 Cl6_A2_n191 Cl1-    0.261300    0.762900    0.380678    2.000000 Uiso  1.0000
 Li3_A2_n191 Li+    0.000000    0.500000    0.381000    2.000000 Uiso  0.2700
 Sc1_A2_n192 Sc3+    0.500000    0.000000    0.383000    2.000000 Uiso  1.0000
 Cl1_A2_n192 Cl1-    0.742100    0.768700    0.383000    2.000000 Uiso  1.0000
 Cl2_A2_n192 Cl1-    0.257900    0.231300    0.383000    2.000000 Uiso  1.0000
 Cl3_A2_n192 Cl1-    0.738700    0.237100    0.383322    2.000000 Uiso  1.0000
 Cl4_A2_n192 Cl1-    0.261300    0.762900    0.383322    2.000000 Uiso  1.0000
 Cl5_A2_n192 Cl1-    0.738700    0.237100    0.382678    2.000000 Uiso  1.0000
 Cl6_A2_n192 Cl1-    0.261300    0.762900    0.382678    2.000000 Uiso  1.0000
 Li3_A2_n192 Li+    0.000000    0.500000    0.383000    2.000000 Uiso  0.2700
 Sc1_A2_n193_fault Sc3+    0.500000    0.333330    0.385000    2.000000 Uiso  1.0000
 Cl1_A2_n193_fault Cl1-    0.742100    1.102030    0.385000    2.000000 Uiso  1.0000
 Cl2_A2_n193_fault Cl1-    0.257900    0.564630    0.385000    2.000000 Uiso  1.0000
 Cl3_A2_n193_fault Cl1-    0.738700    0.570430    0.385322    2.000000 Uiso  1.0000
 Cl4_A2_n193_fault Cl1-    0.261300    1.096230    0.385322    2.000000 Uiso  1.0000
 Cl5_A2_n193_fault Cl1-    0.738700    0.570430    0.384678    2.000000 Uiso  1.0000
 Cl6_A2_n193_fault Cl1-    0.261300    1.096230    0.384678    2.000000 Uiso  1.0000
 Li3_A2_n193_fault Li+    0.000000    0.833330    0.385000    2.000000 Uiso  0.2700
 Sc1_A2_n194 Sc3+    0.500000    0.000000    0.387000    2.000000 Uiso  1.0000
 Cl1_A2_n194 Cl1-    0.742100    0.768700    0.387000    2.000000 Uiso  1.0000
 Cl2_A2_n194 Cl1-    0.257900    0.231300    0.387000    2.000000 Uiso  1.0000
 Cl3_A2_n194 Cl1-    0.738700    0.237100    0.387322    2.000000 Uiso  1.0000
 Cl4_A2_n194 Cl1-    0.261300    0.762900    0.387322    2.000000 Uiso  1.0000
 Cl5_A2_n194 Cl1-    0.738700    0.237100    0.386678    2.000000 Uiso  1.0000
 Cl6_A2_n194 Cl1-    0.261300    0.762900    0.386678    2.000000 Uiso  1.0000
 Li3_A2_n194 Li+    0.000000    0.500000    0.387000    2.000000 Uiso  0.2700
 Sc1_A2_n195 Sc3+    0.500000    0.000000    0.389000    2.000000 Uiso  1.0000
 Cl1_A2_n195 Cl1-    0.742100    0.768700    0.389000    2.000000 Uiso  1.0000
 Cl2_A2_n195 Cl1-    0.257900    0.231300    0.389000    2.000000 Uiso  1.0000
 Cl3_A2_n195 Cl1-    0.738700    0.237100    0.389322    2.000000 Uiso  1.0000
 Cl4_A2_n195 Cl1-    0.261300    0.762900    0.389322    2.000000 Uiso  1.0000
 Cl5_A2_n195 Cl1-    0.738700    0.237100    0.388678    2.000000 Uiso  1.0000
 Cl6_A2_n195 Cl1-    0.261300    0.762900    0.388678    2.000000 Uiso  1.0000
 Li3_A2_n195 Li+    0.000000    0.500000    0.389000    2.000000 Uiso  0.2700
 Sc1_A2_n196 Sc3+    0.500000    0.000000    0.391000    2.000000 Uiso  1.0000
 Cl1_A2_n196 Cl1-    0.742100    0.768700    0.391000    2.000000 Uiso  1.0000
 Cl2_A2_n196 Cl1-    0.257900    0.231300    0.391000    2.000000 Uiso  1.0000
 Cl3_A2_n196 Cl1-    0.738700    0.237100    0.391322    2.000000 Uiso  1.0000
 Cl4_A2_n196 Cl1-    0.261300    0.762900    0.391322    2.000000 Uiso  1.0000
 Cl5_A2_n196 Cl1-    0.738700    0.237100    0.390678    2.000000 Uiso  1.0000
 Cl6_A2_n196 Cl1-    0.261300    0.762900    0.390678    2.000000 Uiso  1.0000
 Li3_A2_n196 Li+    0.000000    0.500000    0.391000    2.000000 Uiso  0.2700
 Sc1_A2_n197 Sc3+    0.500000    0.000000    0.393000    2.000000 Uiso  1.0000
 Cl1_A2_n197 Cl1-    0.742100    0.768700    0.393000    2.000000 Uiso  1.0000
 Cl2_A2_n197 Cl1-    0.257900    0.231300    0.393000    2.000000 Uiso  1.0000
 Cl3_A2_n197 Cl1-    0.738700    0.237100    0.393322    2.000000 Uiso  1.0000
 Cl4_A2_n197 Cl1-    0.261300    0.762900    0.393322    2.000000 Uiso  1.0000
 Cl5_A2_n197 Cl1-    0.738700    0.237100    0.392678    2.000000 Uiso  1.0000
 Cl6_A2_n197 Cl1-    0.261300    0.762900    0.392678    2.000000 Uiso  1.0000
 Li3_A2_n197 Li+    0.000000    0.500000    0.393000    2.000000 Uiso  0.2700
 Sc1_A2_n198_fault Sc3+    0.500000    0.333330    0.395000    2.000000 Uiso  1.0000
 Cl1_A2_n198_fault Cl1-    0.742100    1.102030    0.395000    2.000000 Uiso  1.0000
 Cl2_A2_n198_fault Cl1-    0.257900    0.564630    0.395000    2.000000 Uiso  1.0000
 Cl3_A2_n198_fault Cl1-    0.738700    0.570430    0.395322    2.000000 Uiso  1.0000
 Cl4_A2_n198_fault Cl1-    0.261300    1.096230    0.395322    2.000000 Uiso  1.0000
 Cl5_A2_n198_fault Cl1-    0.738700    0.570430    0.394678    2.000000 Uiso  1.0000
 Cl6_A2_n198_fault Cl1-    0.261300    1.096230    0.394678    2.000000 Uiso  1.0000
 Li3_A2_n198_fault Li+    0.000000    0.833330    0.395000    2.000000 Uiso  0.2700
 Sc1_A2_n199_fault Sc3+    0.500000    0.333330    0.397000    2.000000 Uiso  1.0000
 Cl1_A2_n199_fault Cl1-    0.742100    1.102030    0.397000    2.000000 Uiso  1.0000
 Cl2_A2_n199_fault Cl1-    0.257900    0.564630    0.397000    2.000000 Uiso  1.0000
 Cl3_A2_n199_fault Cl1-    0.738700    0.570430    0.397322    2.000000 Uiso  1.0000
 Cl4_A2_n199_fault Cl1-    0.261300    1.096230    0.397322    2.000000 Uiso  1.0000
 Cl5_A2_n199_fault Cl1-    0.738700    0.570430    0.396678    2.000000 Uiso  1.0000
 Cl6_A2_n199_fault Cl1-    0.261300    1.096230    0.396678    2.000000 Uiso  1.0000
 Li3_A2_n199_fault Li+    0.000000    0.833330    0.397000    2.000000 Uiso  0.2700
 Sc1_A2_n200 Sc3+    0.500000    0.000000    0.399000    2.000000 Uiso  1.0000
 Cl1_A2_n200 Cl1-    0.742100    0.768700    0.399000    2.000000 Uiso  1.0000
 Cl2_A2_n200 Cl1-    0.257900    0.231300    0.399000    2.000000 Uiso  1.0000
 Cl3_A2_n200 Cl1-    0.738700    0.237100    0.399322    2.000000 Uiso  1.0000
 Cl4_A2_n200 Cl1-    0.261300    0.762900    0.399322    2.000000 Uiso  1.0000
 Cl5_A2_n200 Cl1-    0.738700    0.237100    0.398678    2.000000 Uiso  1.0000
 Cl6_A2_n200 Cl1-    0.261300    0.762900    0.398678    2.000000 Uiso  1.0000
 Li3_A2_n200 Li+    0.000000    0.500000    0.399000    2.000000 Uiso  0.2700
 Sc1_A2_n201 Sc3+    0.500000    0.000000    0.401000    2.000000 Uiso  1.0000
 Cl1_A2_n201 Cl1-    0.742100    0.768700    0.401000    2.000000 Uiso  1.0000
 Cl2_A2_n201 Cl1-    0.257900    0.231300    0.401000    2.000000 Uiso  1.0000
 Cl3_A2_n201 Cl1-    0.738700    0.237100    0.401322    2.000000 Uiso  1.0000
 Cl4_A2_n201 Cl1-    0.261300    0.762900    0.401322    2.000000 Uiso  1.0000
 Cl5_A2_n201 Cl1-    0.738700    0.237100    0.400678    2.000000 Uiso  1.0000
 Cl6_A2_n201 Cl1-    0.261300    0.762900    0.400678    2.000000 Uiso  1.0000
 Li3_A2_n201 Li+    0.000000    0.500000    0.401000    2.000000 Uiso  0.2700
 Sc1_A2_n202 Sc3+    0.500000    0.000000    0.403000    2.000000 Uiso  1.0000
 Cl1_A2_n202 Cl1-    0.742100    0.768700    0.403000    2.000000 Uiso  1.0000
 Cl2_A2_n202 Cl1-    0.257900    0.231300    0.403000    2.000000 Uiso  1.0000
 Cl3_A2_n202 Cl1-    0.738700    0.237100    0.403322    2.000000 Uiso  1.0000
 Cl4_A2_n202 Cl1-    0.261300    0.762900    0.403322    2.000000 Uiso  1.0000
 Cl5_A2_n202 Cl1-    0.738700    0.237100    0.402678    2.000000 Uiso  1.0000
 Cl6_A2_n202 Cl1-    0.261300    0.762900    0.402678    2.000000 Uiso  1.0000
 Li3_A2_n202 Li+    0.000000    0.500000    0.403000    2.000000 Uiso  0.2700
 Sc1_A2_n203 Sc3+    0.500000    0.000000    0.405000    2.000000 Uiso  1.0000
 Cl1_A2_n203 Cl1-    0.742100    0.768700    0.405000    2.000000 Uiso  1.0000
 Cl2_A2_n203 Cl1-    0.257900    0.231300    0.405000    2.000000 Uiso  1.0000
 Cl3_A2_n203 Cl1-    0.738700    0.237100    0.405322    2.000000 Uiso  1.0000
 Cl4_A2_n203 Cl1-    0.261300    0.762900    0.405322    2.000000 Uiso  1.0000
 Cl5_A2_n203 Cl1-    0.738700    0.237100    0.404678    2.000000 Uiso  1.0000
 Cl6_A2_n203 Cl1-    0.261300    0.762900    0.404678    2.000000 Uiso  1.0000
 Li3_A2_n203 Li+    0.000000    0.500000    0.405000    2.000000 Uiso  0.2700
 Sc1_A2_n204 Sc3+    0.500000    0.000000    0.407000    2.000000 Uiso  1.0000
 Cl1_A2_n204 Cl1-    0.742100    0.768700    0.407000    2.000000 Uiso  1.0000
 Cl2_A2_n204 Cl1-    0.257900    0.231300    0.407000    2.000000 Uiso  1.0000
 Cl3_A2_n204 Cl1-    0.738700    0.237100    0.407322    2.000000 Uiso  1.0000
 Cl4_A2_n204 Cl1-    0.261300    0.762900    0.407322    2.000000 Uiso  1.0000
 Cl5_A2_n204 Cl1-    0.738700    0.237100    0.406678    2.000000 Uiso  1.0000
 Cl6_A2_n204 Cl1-    0.261300    0.762900    0.406678    2.000000 Uiso  1.0000
 Li3_A2_n204 Li+    0.000000    0.500000    0.407000    2.000000 Uiso  0.2700
 Sc1_A2_n205_fault Sc3+    0.500000    0.333330    0.409000    2.000000 Uiso  1.0000
 Cl1_A2_n205_fault Cl1-    0.742100    1.102030    0.409000    2.000000 Uiso  1.0000
 Cl2_A2_n205_fault Cl1-    0.257900    0.564630    0.409000    2.000000 Uiso  1.0000
 Cl3_A2_n205_fault Cl1-    0.738700    0.570430    0.409322    2.000000 Uiso  1.0000
 Cl4_A2_n205_fault Cl1-    0.261300    1.096230    0.409322    2.000000 Uiso  1.0000
 Cl5_A2_n205_fault Cl1-    0.738700    0.570430    0.408678    2.000000 Uiso  1.0000
 Cl6_A2_n205_fault Cl1-    0.261300    1.096230    0.408678    2.000000 Uiso  1.0000
 Li3_A2_n205_fault Li+    0.000000    0.833330    0.409000    2.000000 Uiso  0.2700
 Sc1_A2_n206 Sc3+    0.500000    0.000000    0.411000    2.000000 Uiso  1.0000
 Cl1_A2_n206 Cl1-    0.742100    0.768700    0.411000    2.000000 Uiso  1.0000
 Cl2_A2_n206 Cl1-    0.257900    0.231300    0.411000    2.000000 Uiso  1.0000
 Cl3_A2_n206 Cl1-    0.738700    0.237100    0.411322    2.000000 Uiso  1.0000
 Cl4_A2_n206 Cl1-    0.261300    0.762900    0.411322    2.000000 Uiso  1.0000
 Cl5_A2_n206 Cl1-    0.738700    0.237100    0.410678    2.000000 Uiso  1.0000
 Cl6_A2_n206 Cl1-    0.261300    0.762900    0.410678    2.000000 Uiso  1.0000
 Li3_A2_n206 Li+    0.000000    0.500000    0.411000    2.000000 Uiso  0.2700
 Sc1_A2_n207 Sc3+    0.500000    0.000000    0.413000    2.000000 Uiso  1.0000
 Cl1_A2_n207 Cl1-    0.742100    0.768700    0.413000    2.000000 Uiso  1.0000
 Cl2_A2_n207 Cl1-    0.257900    0.231300    0.413000    2.000000 Uiso  1.0000
 Cl3_A2_n207 Cl1-    0.738700    0.237100    0.413322    2.000000 Uiso  1.0000
 Cl4_A2_n207 Cl1-    0.261300    0.762900    0.413322    2.000000 Uiso  1.0000
 Cl5_A2_n207 Cl1-    0.738700    0.237100    0.412678    2.000000 Uiso  1.0000
 Cl6_A2_n207 Cl1-    0.261300    0.762900    0.412678    2.000000 Uiso  1.0000
 Li3_A2_n207 Li+    0.000000    0.500000    0.413000    2.000000 Uiso  0.2700
 Sc1_A2_n208 Sc3+    0.500000    0.000000    0.415000    2.000000 Uiso  1.0000
 Cl1_A2_n208 Cl1-    0.742100    0.768700    0.415000    2.000000 Uiso  1.0000
 Cl2_A2_n208 Cl1-    0.257900    0.231300    0.415000    2.000000 Uiso  1.0000
 Cl3_A2_n208 Cl1-    0.738700    0.237100    0.415322    2.000000 Uiso  1.0000
 Cl4_A2_n208 Cl1-    0.261300    0.762900    0.415322    2.000000 Uiso  1.0000
 Cl5_A2_n208 Cl1-    0.738700    0.237100    0.414678    2.000000 Uiso  1.0000
 Cl6_A2_n208 Cl1-    0.261300    0.762900    0.414678    2.000000 Uiso  1.0000
 Li3_A2_n208 Li+    0.000000    0.500000    0.415000    2.000000 Uiso  0.2700
 Sc1_A2_n209 Sc3+    0.500000    0.000000    0.417000    2.000000 Uiso  1.0000
 Cl1_A2_n209 Cl1-    0.742100    0.768700    0.417000    2.000000 Uiso  1.0000
 Cl2_A2_n209 Cl1-    0.257900    0.231300    0.417000    2.000000 Uiso  1.0000
 Cl3_A2_n209 Cl1-    0.738700    0.237100    0.417322    2.000000 Uiso  1.0000
 Cl4_A2_n209 Cl1-    0.261300    0.762900    0.417322    2.000000 Uiso  1.0000
 Cl5_A2_n209 Cl1-    0.738700    0.237100    0.416678    2.000000 Uiso  1.0000
 Cl6_A2_n209 Cl1-    0.261300    0.762900    0.416678    2.000000 Uiso  1.0000
 Li3_A2_n209 Li+    0.000000    0.500000    0.417000    2.000000 Uiso  0.2700
 Sc1_A2_n210_fault Sc3+    0.500000    0.333330    0.419000    2.000000 Uiso  1.0000
 Cl1_A2_n210_fault Cl1-    0.742100    1.102030    0.419000    2.000000 Uiso  1.0000
 Cl2_A2_n210_fault Cl1-    0.257900    0.564630    0.419000    2.000000 Uiso  1.0000
 Cl3_A2_n210_fault Cl1-    0.738700    0.570430    0.419322    2.000000 Uiso  1.0000
 Cl4_A2_n210_fault Cl1-    0.261300    1.096230    0.419322    2.000000 Uiso  1.0000
 Cl5_A2_n210_fault Cl1-    0.738700    0.570430    0.418678    2.000000 Uiso  1.0000
 Cl6_A2_n210_fault Cl1-    0.261300    1.096230    0.418678    2.000000 Uiso  1.0000
 Li3_A2_n210_fault Li+    0.000000    0.833330    0.419000    2.000000 Uiso  0.2700
 Sc1_A2_n211_fault Sc3+    0.500000    0.333330    0.421000    2.000000 Uiso  1.0000
 Cl1_A2_n211_fault Cl1-    0.742100    1.102030    0.421000    2.000000 Uiso  1.0000
 Cl2_A2_n211_fault Cl1-    0.257900    0.564630    0.421000    2.000000 Uiso  1.0000
 Cl3_A2_n211_fault Cl1-    0.738700    0.570430    0.421322    2.000000 Uiso  1.0000
 Cl4_A2_n211_fault Cl1-    0.261300    1.096230    0.421322    2.000000 Uiso  1.0000
 Cl5_A2_n211_fault Cl1-    0.738700    0.570430    0.420678    2.000000 Uiso  1.0000
 Cl6_A2_n211_fault Cl1-    0.261300    1.096230    0.420678    2.000000 Uiso  1.0000
 Li3_A2_n211_fault Li+    0.000000    0.833330    0.421000    2.000000 Uiso  0.2700
 Sc1_A2_n212 Sc3+    0.500000    0.000000    0.423000    2.000000 Uiso  1.0000
 Cl1_A2_n212 Cl1-    0.742100    0.768700    0.423000    2.000000 Uiso  1.0000
 Cl2_A2_n212 Cl1-    0.257900    0.231300    0.423000    2.000000 Uiso  1.0000
 Cl3_A2_n212 Cl1-    0.738700    0.237100    0.423322    2.000000 Uiso  1.0000
 Cl4_A2_n212 Cl1-    0.261300    0.762900    0.423322    2.000000 Uiso  1.0000
 Cl5_A2_n212 Cl1-    0.738700    0.237100    0.422678    2.000000 Uiso  1.0000
 Cl6_A2_n212 Cl1-    0.261300    0.762900    0.422678    2.000000 Uiso  1.0000
 Li3_A2_n212 Li+    0.000000    0.500000    0.423000    2.000000 Uiso  0.2700
 Sc1_A2_n213_fault Sc3+    0.500000    0.333330    0.425000    2.000000 Uiso  1.0000
 Cl1_A2_n213_fault Cl1-    0.742100    1.102030    0.425000    2.000000 Uiso  1.0000
 Cl2_A2_n213_fault Cl1-    0.257900    0.564630    0.425000    2.000000 Uiso  1.0000
 Cl3_A2_n213_fault Cl1-    0.738700    0.570430    0.425322    2.000000 Uiso  1.0000
 Cl4_A2_n213_fault Cl1-    0.261300    1.096230    0.425322    2.000000 Uiso  1.0000
 Cl5_A2_n213_fault Cl1-    0.738700    0.570430    0.424678    2.000000 Uiso  1.0000
 Cl6_A2_n213_fault Cl1-    0.261300    1.096230    0.424678    2.000000 Uiso  1.0000
 Li3_A2_n213_fault Li+    0.000000    0.833330    0.425000    2.000000 Uiso  0.2700
 Sc1_A2_n214_fault Sc3+    0.500000    0.333330    0.427000    2.000000 Uiso  1.0000
 Cl1_A2_n214_fault Cl1-    0.742100    1.102030    0.427000    2.000000 Uiso  1.0000
 Cl2_A2_n214_fault Cl1-    0.257900    0.564630    0.427000    2.000000 Uiso  1.0000
 Cl3_A2_n214_fault Cl1-    0.738700    0.570430    0.427322    2.000000 Uiso  1.0000
 Cl4_A2_n214_fault Cl1-    0.261300    1.096230    0.427322    2.000000 Uiso  1.0000
 Cl5_A2_n214_fault Cl1-    0.738700    0.570430    0.426678    2.000000 Uiso  1.0000
 Cl6_A2_n214_fault Cl1-    0.261300    1.096230    0.426678    2.000000 Uiso  1.0000
 Li3_A2_n214_fault Li+    0.000000    0.833330    0.427000    2.000000 Uiso  0.2700
 Sc1_A2_n215 Sc3+    0.500000    0.000000    0.429000    2.000000 Uiso  1.0000
 Cl1_A2_n215 Cl1-    0.742100    0.768700    0.429000    2.000000 Uiso  1.0000
 Cl2_A2_n215 Cl1-    0.257900    0.231300    0.429000    2.000000 Uiso  1.0000
 Cl3_A2_n215 Cl1-    0.738700    0.237100    0.429322    2.000000 Uiso  1.0000
 Cl4_A2_n215 Cl1-    0.261300    0.762900    0.429322    2.000000 Uiso  1.0000
 Cl5_A2_n215 Cl1-    0.738700    0.237100    0.428678    2.000000 Uiso  1.0000
 Cl6_A2_n215 Cl1-    0.261300    0.762900    0.428678    2.000000 Uiso  1.0000
 Li3_A2_n215 Li+    0.000000    0.500000    0.429000    2.000000 Uiso  0.2700
 Sc1_A2_n216 Sc3+    0.500000    0.000000    0.431000    2.000000 Uiso  1.0000
 Cl1_A2_n216 Cl1-    0.742100    0.768700    0.431000    2.000000 Uiso  1.0000
 Cl2_A2_n216 Cl1-    0.257900    0.231300    0.431000    2.000000 Uiso  1.0000
 Cl3_A2_n216 Cl1-    0.738700    0.237100    0.431322    2.000000 Uiso  1.0000
 Cl4_A2_n216 Cl1-    0.261300    0.762900    0.431322    2.000000 Uiso  1.0000
 Cl5_A2_n216 Cl1-    0.738700    0.237100    0.430678    2.000000 Uiso  1.0000
 Cl6_A2_n216 Cl1-    0.261300    0.762900    0.430678    2.000000 Uiso  1.0000
 Li3_A2_n216 Li+    0.000000    0.500000    0.431000    2.000000 Uiso  0.2700
 Sc1_A2_n217 Sc3+    0.500000    0.000000    0.433000    2.000000 Uiso  1.0000
 Cl1_A2_n217 Cl1-    0.742100    0.768700    0.433000    2.000000 Uiso  1.0000
 Cl2_A2_n217 Cl1-    0.257900    0.231300    0.433000    2.000000 Uiso  1.0000
 Cl3_A2_n217 Cl1-    0.738700    0.237100    0.433322    2.000000 Uiso  1.0000
 Cl4_A2_n217 Cl1-    0.261300    0.762900    0.433322    2.000000 Uiso  1.0000
 Cl5_A2_n217 Cl1-    0.738700    0.237100    0.432678    2.000000 Uiso  1.0000
 Cl6_A2_n217 Cl1-    0.261300    0.762900    0.432678    2.000000 Uiso  1.0000
 Li3_A2_n217 Li+    0.000000    0.500000    0.433000    2.000000 Uiso  0.2700
 Sc1_A2_n218 Sc3+    0.500000    0.000000    0.435000    2.000000 Uiso  1.0000
 Cl1_A2_n218 Cl1-    0.742100    0.768700    0.435000    2.000000 Uiso  1.0000
 Cl2_A2_n218 Cl1-    0.257900    0.231300    0.435000    2.000000 Uiso  1.0000
 Cl3_A2_n218 Cl1-    0.738700    0.237100    0.435322    2.000000 Uiso  1.0000
 Cl4_A2_n218 Cl1-    0.261300    0.762900    0.435322    2.000000 Uiso  1.0000
 Cl5_A2_n218 Cl1-    0.738700    0.237100    0.434678    2.000000 Uiso  1.0000
 Cl6_A2_n218 Cl1-    0.261300    0.762900    0.434678    2.000000 Uiso  1.0000
 Li3_A2_n218 Li+    0.000000    0.500000    0.435000    2.000000 Uiso  0.2700
 Sc1_A2_n219 Sc3+    0.500000    0.000000    0.437000    2.000000 Uiso  1.0000
 Cl1_A2_n219 Cl1-    0.742100    0.768700    0.437000    2.000000 Uiso  1.0000
 Cl2_A2_n219 Cl1-    0.257900    0.231300    0.437000    2.000000 Uiso  1.0000
 Cl3_A2_n219 Cl1-    0.738700    0.237100    0.437322    2.000000 Uiso  1.0000
 Cl4_A2_n219 Cl1-    0.261300    0.762900    0.437322    2.000000 Uiso  1.0000
 Cl5_A2_n219 Cl1-    0.738700    0.237100    0.436678    2.000000 Uiso  1.0000
 Cl6_A2_n219 Cl1-    0.261300    0.762900    0.436678    2.000000 Uiso  1.0000
 Li3_A2_n219 Li+    0.000000    0.500000    0.437000    2.000000 Uiso  0.2700
 Sc1_A2_n220_fault Sc3+    0.500000    0.333330    0.439000    2.000000 Uiso  1.0000
 Cl1_A2_n220_fault Cl1-    0.742100    1.102030    0.439000    2.000000 Uiso  1.0000
 Cl2_A2_n220_fault Cl1-    0.257900    0.564630    0.439000    2.000000 Uiso  1.0000
 Cl3_A2_n220_fault Cl1-    0.738700    0.570430    0.439322    2.000000 Uiso  1.0000
 Cl4_A2_n220_fault Cl1-    0.261300    1.096230    0.439322    2.000000 Uiso  1.0000
 Cl5_A2_n220_fault Cl1-    0.738700    0.570430    0.438678    2.000000 Uiso  1.0000
 Cl6_A2_n220_fault Cl1-    0.261300    1.096230    0.438678    2.000000 Uiso  1.0000
 Li3_A2_n220_fault Li+    0.000000    0.833330    0.439000    2.000000 Uiso  0.2700
 Sc1_A2_n221_fault Sc3+    0.500000    0.333330    0.441000    2.000000 Uiso  1.0000
 Cl1_A2_n221_fault Cl1-    0.742100    1.102030    0.441000    2.000000 Uiso  1.0000
 Cl2_A2_n221_fault Cl1-    0.257900    0.564630    0.441000    2.000000 Uiso  1.0000
 Cl3_A2_n221_fault Cl1-    0.738700    0.570430    0.441322    2.000000 Uiso  1.0000
 Cl4_A2_n221_fault Cl1-    0.261300    1.096230    0.441322    2.000000 Uiso  1.0000
 Cl5_A2_n221_fault Cl1-    0.738700    0.570430    0.440678    2.000000 Uiso  1.0000
 Cl6_A2_n221_fault Cl1-    0.261300    1.096230    0.440678    2.000000 Uiso  1.0000
 Li3_A2_n221_fault Li+    0.000000    0.833330    0.441000    2.000000 Uiso  0.2700
 Sc1_A2_n222 Sc3+    0.500000    0.000000    0.443000    2.000000 Uiso  1.0000
 Cl1_A2_n222 Cl1-    0.742100    0.768700    0.443000    2.000000 Uiso  1.0000
 Cl2_A2_n222 Cl1-    0.257900    0.231300    0.443000    2.000000 Uiso  1.0000
 Cl3_A2_n222 Cl1-    0.738700    0.237100    0.443322    2.000000 Uiso  1.0000
 Cl4_A2_n222 Cl1-    0.261300    0.762900    0.443322    2.000000 Uiso  1.0000
 Cl5_A2_n222 Cl1-    0.738700    0.237100    0.442678    2.000000 Uiso  1.0000
 Cl6_A2_n222 Cl1-    0.261300    0.762900    0.442678    2.000000 Uiso  1.0000
 Li3_A2_n222 Li+    0.000000    0.500000    0.443000    2.000000 Uiso  0.2700
 Sc1_A2_n223 Sc3+    0.500000    0.000000    0.445000    2.000000 Uiso  1.0000
 Cl1_A2_n223 Cl1-    0.742100    0.768700    0.445000    2.000000 Uiso  1.0000
 Cl2_A2_n223 Cl1-    0.257900    0.231300    0.445000    2.000000 Uiso  1.0000
 Cl3_A2_n223 Cl1-    0.738700    0.237100    0.445322    2.000000 Uiso  1.0000
 Cl4_A2_n223 Cl1-    0.261300    0.762900    0.445322    2.000000 Uiso  1.0000
 Cl5_A2_n223 Cl1-    0.738700    0.237100    0.444678    2.000000 Uiso  1.0000
 Cl6_A2_n223 Cl1-    0.261300    0.762900    0.444678    2.000000 Uiso  1.0000
 Li3_A2_n223 Li+    0.000000    0.500000    0.445000    2.000000 Uiso  0.2700
 Sc1_A2_n224_fault Sc3+    0.500000    0.333330    0.447000    2.000000 Uiso  1.0000
 Cl1_A2_n224_fault Cl1-    0.742100    1.102030    0.447000    2.000000 Uiso  1.0000
 Cl2_A2_n224_fault Cl1-    0.257900    0.564630    0.447000    2.000000 Uiso  1.0000
 Cl3_A2_n224_fault Cl1-    0.738700    0.570430    0.447322    2.000000 Uiso  1.0000
 Cl4_A2_n224_fault Cl1-    0.261300    1.096230    0.447322    2.000000 Uiso  1.0000
 Cl5_A2_n224_fault Cl1-    0.738700    0.570430    0.446678    2.000000 Uiso  1.0000
 Cl6_A2_n224_fault Cl1-    0.261300    1.096230    0.446678    2.000000 Uiso  1.0000
 Li3_A2_n224_fault Li+    0.000000    0.833330    0.447000    2.000000 Uiso  0.2700
 Sc1_A2_n225 Sc3+    0.500000    0.000000    0.449000    2.000000 Uiso  1.0000
 Cl1_A2_n225 Cl1-    0.742100    0.768700    0.449000    2.000000 Uiso  1.0000
 Cl2_A2_n225 Cl1-    0.257900    0.231300    0.449000    2.000000 Uiso  1.0000
 Cl3_A2_n225 Cl1-    0.738700    0.237100    0.449322    2.000000 Uiso  1.0000
 Cl4_A2_n225 Cl1-    0.261300    0.762900    0.449322    2.000000 Uiso  1.0000
 Cl5_A2_n225 Cl1-    0.738700    0.237100    0.448678    2.000000 Uiso  1.0000
 Cl6_A2_n225 Cl1-    0.261300    0.762900    0.448678    2.000000 Uiso  1.0000
 Li3_A2_n225 Li+    0.000000    0.500000    0.449000    2.000000 Uiso  0.2700
 Sc1_A2_n226 Sc3+    0.500000    0.000000    0.451000    2.000000 Uiso  1.0000
 Cl1_A2_n226 Cl1-    0.742100    0.768700    0.451000    2.000000 Uiso  1.0000
 Cl2_A2_n226 Cl1-    0.257900    0.231300    0.451000    2.000000 Uiso  1.0000
 Cl3_A2_n226 Cl1-    0.738700    0.237100    0.451322    2.000000 Uiso  1.0000
 Cl4_A2_n226 Cl1-    0.261300    0.762900    0.451322    2.000000 Uiso  1.0000
 Cl5_A2_n226 Cl1-    0.738700    0.237100    0.450678    2.000000 Uiso  1.0000
 Cl6_A2_n226 Cl1-    0.261300    0.762900    0.450678    2.000000 Uiso  1.0000
 Li3_A2_n226 Li+    0.000000    0.500000    0.451000    2.000000 Uiso  0.2700
 Sc1_A2_n227 Sc3+    0.500000    0.000000    0.453000    2.000000 Uiso  1.0000
 Cl1_A2_n227 Cl1-    0.742100    0.768700    0.453000    2.000000 Uiso  1.0000
 Cl2_A2_n227 Cl1-    0.257900    0.231300    0.453000    2.000000 Uiso  1.0000
 Cl3_A2_n227 Cl1-    0.738700    0.237100    0.453322    2.000000 Uiso  1.0000
 Cl4_A2_n227 Cl1-    0.261300    0.762900    0.453322    2.000000 Uiso  1.0000
 Cl5_A2_n227 Cl1-    0.738700    0.237100    0.452678    2.000000 Uiso  1.0000
 Cl6_A2_n227 Cl1-    0.261300    0.762900    0.452678    2.000000 Uiso  1.0000
 Li3_A2_n227 Li+    0.000000    0.500000    0.453000    2.000000 Uiso  0.2700
 Sc1_A2_n228 Sc3+    0.500000    0.000000    0.455000    2.000000 Uiso  1.0000
 Cl1_A2_n228 Cl1-    0.742100    0.768700    0.455000    2.000000 Uiso  1.0000
 Cl2_A2_n228 Cl1-    0.257900    0.231300    0.455000    2.000000 Uiso  1.0000
 Cl3_A2_n228 Cl1-    0.738700    0.237100    0.455322    2.000000 Uiso  1.0000
 Cl4_A2_n228 Cl1-    0.261300    0.762900    0.455322    2.000000 Uiso  1.0000
 Cl5_A2_n228 Cl1-    0.738700    0.237100    0.454678    2.000000 Uiso  1.0000
 Cl6_A2_n228 Cl1-    0.261300    0.762900    0.454678    2.000000 Uiso  1.0000
 Li3_A2_n228 Li+    0.000000    0.500000    0.455000    2.000000 Uiso  0.2700
 Sc1_A2_n229 Sc3+    0.500000    0.000000    0.457000    2.000000 Uiso  1.0000
 Cl1_A2_n229 Cl1-    0.742100    0.768700    0.457000    2.000000 Uiso  1.0000
 Cl2_A2_n229 Cl1-    0.257900    0.231300    0.457000    2.000000 Uiso  1.0000
 Cl3_A2_n229 Cl1-    0.738700    0.237100    0.457322    2.000000 Uiso  1.0000
 Cl4_A2_n229 Cl1-    0.261300    0.762900    0.457322    2.000000 Uiso  1.0000
 Cl5_A2_n229 Cl1-    0.738700    0.237100    0.456678    2.000000 Uiso  1.0000
 Cl6_A2_n229 Cl1-    0.261300    0.762900    0.456678    2.000000 Uiso  1.0000
 Li3_A2_n229 Li+    0.000000    0.500000    0.457000    2.000000 Uiso  0.2700
 Sc1_A2_n230 Sc3+    0.500000    0.000000    0.459000    2.000000 Uiso  1.0000
 Cl1_A2_n230 Cl1-    0.742100    0.768700    0.459000    2.000000 Uiso  1.0000
 Cl2_A2_n230 Cl1-    0.257900    0.231300    0.459000    2.000000 Uiso  1.0000
 Cl3_A2_n230 Cl1-    0.738700    0.237100    0.459322    2.000000 Uiso  1.0000
 Cl4_A2_n230 Cl1-    0.261300    0.762900    0.459322    2.000000 Uiso  1.0000
 Cl5_A2_n230 Cl1-    0.738700    0.237100    0.458678    2.000000 Uiso  1.0000
 Cl6_A2_n230 Cl1-    0.261300    0.762900    0.458678    2.000000 Uiso  1.0000
 Li3_A2_n230 Li+    0.000000    0.500000    0.459000    2.000000 Uiso  0.2700
 Sc1_A2_n231_fault Sc3+    0.500000    0.333330    0.461000    2.000000 Uiso  1.0000
 Cl1_A2_n231_fault Cl1-    0.742100    1.102030    0.461000    2.000000 Uiso  1.0000
 Cl2_A2_n231_fault Cl1-    0.257900    0.564630    0.461000    2.000000 Uiso  1.0000
 Cl3_A2_n231_fault Cl1-    0.738700    0.570430    0.461322    2.000000 Uiso  1.0000
 Cl4_A2_n231_fault Cl1-    0.261300    1.096230    0.461322    2.000000 Uiso  1.0000
 Cl5_A2_n231_fault Cl1-    0.738700    0.570430    0.460678    2.000000 Uiso  1.0000
 Cl6_A2_n231_fault Cl1-    0.261300    1.096230    0.460678    2.000000 Uiso  1.0000
 Li3_A2_n231_fault Li+    0.000000    0.833330    0.461000    2.000000 Uiso  0.2700
 Sc1_A2_n232 Sc3+    0.500000    0.000000    0.463000    2.000000 Uiso  1.0000
 Cl1_A2_n232 Cl1-    0.742100    0.768700    0.463000    2.000000 Uiso  1.0000
 Cl2_A2_n232 Cl1-    0.257900    0.231300    0.463000    2.000000 Uiso  1.0000
 Cl3_A2_n232 Cl1-    0.738700    0.237100    0.463322    2.000000 Uiso  1.0000
 Cl4_A2_n232 Cl1-    0.261300    0.762900    0.463322    2.000000 Uiso  1.0000
 Cl5_A2_n232 Cl1-    0.738700    0.237100    0.462678    2.000000 Uiso  1.0000
 Cl6_A2_n232 Cl1-    0.261300    0.762900    0.462678    2.000000 Uiso  1.0000
 Li3_A2_n232 Li+    0.000000    0.500000    0.463000    2.000000 Uiso  0.2700
 Sc1_A2_n233_fault Sc3+    0.500000    0.333330    0.465000    2.000000 Uiso  1.0000
 Cl1_A2_n233_fault Cl1-    0.742100    1.102030    0.465000    2.000000 Uiso  1.0000
 Cl2_A2_n233_fault Cl1-    0.257900    0.564630    0.465000    2.000000 Uiso  1.0000
 Cl3_A2_n233_fault Cl1-    0.738700    0.570430    0.465322    2.000000 Uiso  1.0000
 Cl4_A2_n233_fault Cl1-    0.261300    1.096230    0.465322    2.000000 Uiso  1.0000
 Cl5_A2_n233_fault Cl1-    0.738700    0.570430    0.464678    2.000000 Uiso  1.0000
 Cl6_A2_n233_fault Cl1-    0.261300    1.096230    0.464678    2.000000 Uiso  1.0000
 Li3_A2_n233_fault Li+    0.000000    0.833330    0.465000    2.000000 Uiso  0.2700
 Sc1_A2_n234_fault Sc3+    0.500000    0.333330    0.467000    2.000000 Uiso  1.0000
 Cl1_A2_n234_fault Cl1-    0.742100    1.102030    0.467000    2.000000 Uiso  1.0000
 Cl2_A2_n234_fault Cl1-    0.257900    0.564630    0.467000    2.000000 Uiso  1.0000
 Cl3_A2_n234_fault Cl1-    0.738700    0.570430    0.467322    2.000000 Uiso  1.0000
 Cl4_A2_n234_fault Cl1-    0.261300    1.096230    0.467322    2.000000 Uiso  1.0000
 Cl5_A2_n234_fault Cl1-    0.738700    0.570430    0.466678    2.000000 Uiso  1.0000
 Cl6_A2_n234_fault Cl1-    0.261300    1.096230    0.466678    2.000000 Uiso  1.0000
 Li3_A2_n234_fault Li+    0.000000    0.833330    0.467000    2.000000 Uiso  0.2700
 Sc1_A2_n235 Sc3+    0.500000    0.000000    0.469000    2.000000 Uiso  1.0000
 Cl1_A2_n235 Cl1-    0.742100    0.768700    0.469000    2.000000 Uiso  1.0000
 Cl2_A2_n235 Cl1-    0.257900    0.231300    0.469000    2.000000 Uiso  1.0000
 Cl3_A2_n235 Cl1-    0.738700    0.237100    0.469322    2.000000 Uiso  1.0000
 Cl4_A2_n235 Cl1-    0.261300    0.762900    0.469322    2.000000 Uiso  1.0000
 Cl5_A2_n235 Cl1-    0.738700    0.237100    0.468678    2.000000 Uiso  1.0000
 Cl6_A2_n235 Cl1-    0.261300    0.762900    0.468678    2.000000 Uiso  1.0000
 Li3_A2_n235 Li+    0.000000    0.500000    0.469000    2.000000 Uiso  0.2700
 Sc1_A2_n236_fault Sc3+    0.500000    0.333330    0.471000    2.000000 Uiso  1.0000
 Cl1_A2_n236_fault Cl1-    0.742100    1.102030    0.471000    2.000000 Uiso  1.0000
 Cl2_A2_n236_fault Cl1-    0.257900    0.564630    0.471000    2.000000 Uiso  1.0000
 Cl3_A2_n236_fault Cl1-    0.738700    0.570430    0.471322    2.000000 Uiso  1.0000
 Cl4_A2_n236_fault Cl1-    0.261300    1.096230    0.471322    2.000000 Uiso  1.0000
 Cl5_A2_n236_fault Cl1-    0.738700    0.570430    0.470678    2.000000 Uiso  1.0000
 Cl6_A2_n236_fault Cl1-    0.261300    1.096230    0.470678    2.000000 Uiso  1.0000
 Li3_A2_n236_fault Li+    0.000000    0.833330    0.471000    2.000000 Uiso  0.2700
 Sc1_A2_n237 Sc3+    0.500000    0.000000    0.473000    2.000000 Uiso  1.0000
 Cl1_A2_n237 Cl1-    0.742100    0.768700    0.473000    2.000000 Uiso  1.0000
 Cl2_A2_n237 Cl1-    0.257900    0.231300    0.473000    2.000000 Uiso  1.0000
 Cl3_A2_n237 Cl1-    0.738700    0.237100    0.473322    2.000000 Uiso  1.0000
 Cl4_A2_n237 Cl1-    0.261300    0.762900    0.473322    2.000000 Uiso  1.0000
 Cl5_A2_n237 Cl1-    0.738700    0.237100    0.472678    2.000000 Uiso  1.0000
 Cl6_A2_n237 Cl1-    0.261300    0.762900    0.472678    2.000000 Uiso  1.0000
 Li3_A2_n237 Li+    0.000000    0.500000    0.473000    2.000000 Uiso  0.2700
 Sc1_A2_n238 Sc3+    0.500000    0.000000    0.475000    2.000000 Uiso  1.0000
 Cl1_A2_n238 Cl1-    0.742100    0.768700    0.475000    2.000000 Uiso  1.0000
 Cl2_A2_n238 Cl1-    0.257900    0.231300    0.475000    2.000000 Uiso  1.0000
 Cl3_A2_n238 Cl1-    0.738700    0.237100    0.475322    2.000000 Uiso  1.0000
 Cl4_A2_n238 Cl1-    0.261300    0.762900    0.475322    2.000000 Uiso  1.0000
 Cl5_A2_n238 Cl1-    0.738700    0.237100    0.474678    2.000000 Uiso  1.0000
 Cl6_A2_n238 Cl1-    0.261300    0.762900    0.474678    2.000000 Uiso  1.0000
 Li3_A2_n238 Li+    0.000000    0.500000    0.475000    2.000000 Uiso  0.2700
 Sc1_A2_n239 Sc3+    0.500000    0.000000    0.477000    2.000000 Uiso  1.0000
 Cl1_A2_n239 Cl1-    0.742100    0.768700    0.477000    2.000000 Uiso  1.0000
 Cl2_A2_n239 Cl1-    0.257900    0.231300    0.477000    2.000000 Uiso  1.0000
 Cl3_A2_n239 Cl1-    0.738700    0.237100    0.477322    2.000000 Uiso  1.0000
 Cl4_A2_n239 Cl1-    0.261300    0.762900    0.477322    2.000000 Uiso  1.0000
 Cl5_A2_n239 Cl1-    0.738700    0.237100    0.476678    2.000000 Uiso  1.0000
 Cl6_A2_n239 Cl1-    0.261300    0.762900    0.476678    2.000000 Uiso  1.0000
 Li3_A2_n239 Li+    0.000000    0.500000    0.477000    2.000000 Uiso  0.2700
 Sc1_A2_n240 Sc3+    0.500000    0.000000    0.479000    2.000000 Uiso  1.0000
 Cl1_A2_n240 Cl1-    0.742100    0.768700    0.479000    2.000000 Uiso  1.0000
 Cl2_A2_n240 Cl1-    0.257900    0.231300    0.479000    2.000000 Uiso  1.0000
 Cl3_A2_n240 Cl1-    0.738700    0.237100    0.479322    2.000000 Uiso  1.0000
 Cl4_A2_n240 Cl1-    0.261300    0.762900    0.479322    2.000000 Uiso  1.0000
 Cl5_A2_n240 Cl1-    0.738700    0.237100    0.478678    2.000000 Uiso  1.0000
 Cl6_A2_n240 Cl1-    0.261300    0.762900    0.478678    2.000000 Uiso  1.0000
 Li3_A2_n240 Li+    0.000000    0.500000    0.479000    2.000000 Uiso  0.2700
 Sc1_A2_n241_fault Sc3+    0.500000    0.333330    0.481000    2.000000 Uiso  1.0000
 Cl1_A2_n241_fault Cl1-    0.742100    1.102030    0.481000    2.000000 Uiso  1.0000
 Cl2_A2_n241_fault Cl1-    0.257900    0.564630    0.481000    2.000000 Uiso  1.0000
 Cl3_A2_n241_fault Cl1-    0.738700    0.570430    0.481322    2.000000 Uiso  1.0000
 Cl4_A2_n241_fault Cl1-    0.261300    1.096230    0.481322    2.000000 Uiso  1.0000
 Cl5_A2_n241_fault Cl1-    0.738700    0.570430    0.480678    2.000000 Uiso  1.0000
 Cl6_A2_n241_fault Cl1-    0.261300    1.096230    0.480678    2.000000 Uiso  1.0000
 Li3_A2_n241_fault Li+    0.000000    0.833330    0.481000    2.000000 Uiso  0.2700
 Sc1_A2_n242 Sc3+    0.500000    0.000000    0.483000    2.000000 Uiso  1.0000
 Cl1_A2_n242 Cl1-    0.742100    0.768700    0.483000    2.000000 Uiso  1.0000
 Cl2_A2_n242 Cl1-    0.257900    0.231300    0.483000    2.000000 Uiso  1.0000
 Cl3_A2_n242 Cl1-    0.738700    0.237100    0.483322    2.000000 Uiso  1.0000
 Cl4_A2_n242 Cl1-    0.261300    0.762900    0.483322    2.000000 Uiso  1.0000
 Cl5_A2_n242 Cl1-    0.738700    0.237100    0.482678    2.000000 Uiso  1.0000
 Cl6_A2_n242 Cl1-    0.261300    0.762900    0.482678    2.000000 Uiso  1.0000
 Li3_A2_n242 Li+    0.000000    0.500000    0.483000    2.000000 Uiso  0.2700
 Sc1_A2_n243 Sc3+    0.500000    0.000000    0.485000    2.000000 Uiso  1.0000
 Cl1_A2_n243 Cl1-    0.742100    0.768700    0.485000    2.000000 Uiso  1.0000
 Cl2_A2_n243 Cl1-    0.257900    0.231300    0.485000    2.000000 Uiso  1.0000
 Cl3_A2_n243 Cl1-    0.738700    0.237100    0.485322    2.000000 Uiso  1.0000
 Cl4_A2_n243 Cl1-    0.261300    0.762900    0.485322    2.000000 Uiso  1.0000
 Cl5_A2_n243 Cl1-    0.738700    0.237100    0.484678    2.000000 Uiso  1.0000
 Cl6_A2_n243 Cl1-    0.261300    0.762900    0.484678    2.000000 Uiso  1.0000
 Li3_A2_n243 Li+    0.000000    0.500000    0.485000    2.000000 Uiso  0.2700
 Sc1_A2_n244 Sc3+    0.500000    0.000000    0.487000    2.000000 Uiso  1.0000
 Cl1_A2_n244 Cl1-    0.742100    0.768700    0.487000    2.000000 Uiso  1.0000
 Cl2_A2_n244 Cl1-    0.257900    0.231300    0.487000    2.000000 Uiso  1.0000
 Cl3_A2_n244 Cl1-    0.738700    0.237100    0.487322    2.000000 Uiso  1.0000
 Cl4_A2_n244 Cl1-    0.261300    0.762900    0.487322    2.000000 Uiso  1.0000
 Cl5_A2_n244 Cl1-    0.738700    0.237100    0.486678    2.000000 Uiso  1.0000
 Cl6_A2_n244 Cl1-    0.261300    0.762900    0.486678    2.000000 Uiso  1.0000
 Li3_A2_n244 Li+    0.000000    0.500000    0.487000    2.000000 Uiso  0.2700
 Sc1_A2_n245 Sc3+    0.500000    0.000000    0.489000    2.000000 Uiso  1.0000
 Cl1_A2_n245 Cl1-    0.742100    0.768700    0.489000    2.000000 Uiso  1.0000
 Cl2_A2_n245 Cl1-    0.257900    0.231300    0.489000    2.000000 Uiso  1.0000
 Cl3_A2_n245 Cl1-    0.738700    0.237100    0.489322    2.000000 Uiso  1.0000
 Cl4_A2_n245 Cl1-    0.261300    0.762900    0.489322    2.000000 Uiso  1.0000
 Cl5_A2_n245 Cl1-    0.738700    0.237100    0.488678    2.000000 Uiso  1.0000
 Cl6_A2_n245 Cl1-    0.261300    0.762900    0.488678    2.000000 Uiso  1.0000
 Li3_A2_n245 Li+    0.000000    0.500000    0.489000    2.000000 Uiso  0.2700
 Sc1_A2_n246 Sc3+    0.500000    0.000000    0.491000    2.000000 Uiso  1.0000
 Cl1_A2_n246 Cl1-    0.742100    0.768700    0.491000    2.000000 Uiso  1.0000
 Cl2_A2_n246 Cl1-    0.257900    0.231300    0.491000    2.000000 Uiso  1.0000
 Cl3_A2_n246 Cl1-    0.738700    0.237100    0.491322    2.000000 Uiso  1.0000
 Cl4_A2_n246 Cl1-    0.261300    0.762900    0.491322    2.000000 Uiso  1.0000
 Cl5_A2_n246 Cl1-    0.738700    0.237100    0.490678    2.000000 Uiso  1.0000
 Cl6_A2_n246 Cl1-    0.261300    0.762900    0.490678    2.000000 Uiso  1.0000
 Li3_A2_n246 Li+    0.000000    0.500000    0.491000    2.000000 Uiso  0.2700
 Sc1_A2_n247 Sc3+    0.500000    0.000000    0.493000    2.000000 Uiso  1.0000
 Cl1_A2_n247 Cl1-    0.742100    0.768700    0.493000    2.000000 Uiso  1.0000
 Cl2_A2_n247 Cl1-    0.257900    0.231300    0.493000    2.000000 Uiso  1.0000
 Cl3_A2_n247 Cl1-    0.738700    0.237100    0.493322    2.000000 Uiso  1.0000
 Cl4_A2_n247 Cl1-    0.261300    0.762900    0.493322    2.000000 Uiso  1.0000
 Cl5_A2_n247 Cl1-    0.738700    0.237100    0.492678    2.000000 Uiso  1.0000
 Cl6_A2_n247 Cl1-    0.261300    0.762900    0.492678    2.000000 Uiso  1.0000
 Li3_A2_n247 Li+    0.000000    0.500000    0.493000    2.000000 Uiso  0.2700
 Sc1_A2_n248 Sc3+    0.500000    0.000000    0.495000    2.000000 Uiso  1.0000
 Cl1_A2_n248 Cl1-    0.742100    0.768700    0.495000    2.000000 Uiso  1.0000
 Cl2_A2_n248 Cl1-    0.257900    0.231300    0.495000    2.000000 Uiso  1.0000
 Cl3_A2_n248 Cl1-    0.738700    0.237100    0.495322    2.000000 Uiso  1.0000
 Cl4_A2_n248 Cl1-    0.261300    0.762900    0.495322    2.000000 Uiso  1.0000
 Cl5_A2_n248 Cl1-    0.738700    0.237100    0.494678    2.000000 Uiso  1.0000
 Cl6_A2_n248 Cl1-    0.261300    0.762900    0.494678    2.000000 Uiso  1.0000
 Li3_A2_n248 Li+    0.000000    0.500000    0.495000    2.000000 Uiso  0.2700
 Sc1_A2_n249 Sc3+    0.500000    0.000000    0.497000    2.000000 Uiso  1.0000
 Cl1_A2_n249 Cl1-    0.742100    0.768700    0.497000    2.000000 Uiso  1.0000
 Cl2_A2_n249 Cl1-    0.257900    0.231300    0.497000    2.000000 Uiso  1.0000
 Cl3_A2_n249 Cl1-    0.738700    0.237100    0.497322    2.000000 Uiso  1.0000
 Cl4_A2_n249 Cl1-    0.261300    0.762900    0.497322    2.000000 Uiso  1.0000
 Cl5_A2_n249 Cl1-    0.738700    0.237100    0.496678    2.000000 Uiso  1.0000
 Cl6_A2_n249 Cl1-    0.261300    0.762900    0.496678    2.000000 Uiso  1.0000
 Li3_A2_n249 Li+    0.000000    0.500000    0.497000    2.000000 Uiso  0.2700
 Sc1_A2_n250 Sc3+    0.500000    0.000000    0.499000    2.000000 Uiso  1.0000
 Cl1_A2_n250 Cl1-    0.742100    0.768700    0.499000    2.000000 Uiso  1.0000
 Cl2_A2_n250 Cl1-    0.257900    0.231300    0.499000    2.000000 Uiso  1.0000
 Cl3_A2_n250 Cl1-    0.738700    0.237100    0.499322    2.000000 Uiso  1.0000
 Cl4_A2_n250 Cl1-    0.261300    0.762900    0.499322    2.000000 Uiso  1.0000
 Cl5_A2_n250 Cl1-    0.738700    0.237100    0.498678    2.000000 Uiso  1.0000
 Cl6_A2_n250 Cl1-    0.261300    0.762900    0.498678    2.000000 Uiso  1.0000
 Li3_A2_n250 Li+    0.000000    0.500000    0.499000    2.000000 Uiso  0.2700
 Sc1_A2_n251 Sc3+    0.500000    0.000000    0.501000    2.000000 Uiso  1.0000
 Cl1_A2_n251 Cl1-    0.742100    0.768700    0.501000    2.000000 Uiso  1.0000
 Cl2_A2_n251 Cl1-    0.257900    0.231300    0.501000    2.000000 Uiso  1.0000
 Cl3_A2_n251 Cl1-    0.738700    0.237100    0.501322    2.000000 Uiso  1.0000
 Cl4_A2_n251 Cl1-    0.261300    0.762900    0.501322    2.000000 Uiso  1.0000
 Cl5_A2_n251 Cl1-    0.738700    0.237100    0.500678    2.000000 Uiso  1.0000
 Cl6_A2_n251 Cl1-    0.261300    0.762900    0.500678    2.000000 Uiso  1.0000
 Li3_A2_n251 Li+    0.000000    0.500000    0.501000    2.000000 Uiso  0.2700
 Sc1_A2_n252 Sc3+    0.500000    0.000000    0.503000    2.000000 Uiso  1.0000
 Cl1_A2_n252 Cl1-    0.742100    0.768700    0.503000    2.000000 Uiso  1.0000
 Cl2_A2_n252 Cl1-    0.257900    0.231300    0.503000    2.000000 Uiso  1.0000
 Cl3_A2_n252 Cl1-    0.738700    0.237100    0.503322    2.000000 Uiso  1.0000
 Cl4_A2_n252 Cl1-    0.261300    0.762900    0.503322    2.000000 Uiso  1.0000
 Cl5_A2_n252 Cl1-    0.738700    0.237100    0.502678    2.000000 Uiso  1.0000
 Cl6_A2_n252 Cl1-    0.261300    0.762900    0.502678    2.000000 Uiso  1.0000
 Li3_A2_n252 Li+    0.000000    0.500000    0.503000    2.000000 Uiso  0.2700
 Sc1_A2_n253 Sc3+    0.500000    0.000000    0.505000    2.000000 Uiso  1.0000
 Cl1_A2_n253 Cl1-    0.742100    0.768700    0.505000    2.000000 Uiso  1.0000
 Cl2_A2_n253 Cl1-    0.257900    0.231300    0.505000    2.000000 Uiso  1.0000
 Cl3_A2_n253 Cl1-    0.738700    0.237100    0.505322    2.000000 Uiso  1.0000
 Cl4_A2_n253 Cl1-    0.261300    0.762900    0.505322    2.000000 Uiso  1.0000
 Cl5_A2_n253 Cl1-    0.738700    0.237100    0.504678    2.000000 Uiso  1.0000
 Cl6_A2_n253 Cl1-    0.261300    0.762900    0.504678    2.000000 Uiso  1.0000
 Li3_A2_n253 Li+    0.000000    0.500000    0.505000    2.000000 Uiso  0.2700
 Sc1_A2_n254 Sc3+    0.500000    0.000000    0.507000    2.000000 Uiso  1.0000
 Cl1_A2_n254 Cl1-    0.742100    0.768700    0.507000    2.000000 Uiso  1.0000
 Cl2_A2_n254 Cl1-    0.257900    0.231300    0.507000    2.000000 Uiso  1.0000
 Cl3_A2_n254 Cl1-    0.738700    0.237100    0.507322    2.000000 Uiso  1.0000
 Cl4_A2_n254 Cl1-    0.261300    0.762900    0.507322    2.000000 Uiso  1.0000
 Cl5_A2_n254 Cl1-    0.738700    0.237100    0.506678    2.000000 Uiso  1.0000
 Cl6_A2_n254 Cl1-    0.261300    0.762900    0.506678    2.000000 Uiso  1.0000
 Li3_A2_n254 Li+    0.000000    0.500000    0.507000    2.000000 Uiso  0.2700
 Sc1_A2_n255_fault Sc3+    0.500000    0.333330    0.509000    2.000000 Uiso  1.0000
 Cl1_A2_n255_fault Cl1-    0.742100    1.102030    0.509000    2.000000 Uiso  1.0000
 Cl2_A2_n255_fault Cl1-    0.257900    0.564630    0.509000    2.000000 Uiso  1.0000
 Cl3_A2_n255_fault Cl1-    0.738700    0.570430    0.509322    2.000000 Uiso  1.0000
 Cl4_A2_n255_fault Cl1-    0.261300    1.096230    0.509322    2.000000 Uiso  1.0000
 Cl5_A2_n255_fault Cl1-    0.738700    0.570430    0.508678    2.000000 Uiso  1.0000
 Cl6_A2_n255_fault Cl1-    0.261300    1.096230    0.508678    2.000000 Uiso  1.0000
 Li3_A2_n255_fault Li+    0.000000    0.833330    0.509000    2.000000 Uiso  0.2700
 Sc1_A2_n256 Sc3+    0.500000    0.000000    0.511000    2.000000 Uiso  1.0000
 Cl1_A2_n256 Cl1-    0.742100    0.768700    0.511000    2.000000 Uiso  1.0000
 Cl2_A2_n256 Cl1-    0.257900    0.231300    0.511000    2.000000 Uiso  1.0000
 Cl3_A2_n256 Cl1-    0.738700    0.237100    0.511322    2.000000 Uiso  1.0000
 Cl4_A2_n256 Cl1-    0.261300    0.762900    0.511322    2.000000 Uiso  1.0000
 Cl5_A2_n256 Cl1-    0.738700    0.237100    0.510678    2.000000 Uiso  1.0000
 Cl6_A2_n256 Cl1-    0.261300    0.762900    0.510678    2.000000 Uiso  1.0000
 Li3_A2_n256 Li+    0.000000    0.500000    0.511000    2.000000 Uiso  0.2700
 Sc1_A2_n257 Sc3+    0.500000    0.000000    0.513000    2.000000 Uiso  1.0000
 Cl1_A2_n257 Cl1-    0.742100    0.768700    0.513000    2.000000 Uiso  1.0000
 Cl2_A2_n257 Cl1-    0.257900    0.231300    0.513000    2.000000 Uiso  1.0000
 Cl3_A2_n257 Cl1-    0.738700    0.237100    0.513322    2.000000 Uiso  1.0000
 Cl4_A2_n257 Cl1-    0.261300    0.762900    0.513322    2.000000 Uiso  1.0000
 Cl5_A2_n257 Cl1-    0.738700    0.237100    0.512678    2.000000 Uiso  1.0000
 Cl6_A2_n257 Cl1-    0.261300    0.762900    0.512678    2.000000 Uiso  1.0000
 Li3_A2_n257 Li+    0.000000    0.500000    0.513000    2.000000 Uiso  0.2700
 Sc1_A2_n258 Sc3+    0.500000    0.000000    0.515000    2.000000 Uiso  1.0000
 Cl1_A2_n258 Cl1-    0.742100    0.768700    0.515000    2.000000 Uiso  1.0000
 Cl2_A2_n258 Cl1-    0.257900    0.231300    0.515000    2.000000 Uiso  1.0000
 Cl3_A2_n258 Cl1-    0.738700    0.237100    0.515322    2.000000 Uiso  1.0000
 Cl4_A2_n258 Cl1-    0.261300    0.762900    0.515322    2.000000 Uiso  1.0000
 Cl5_A2_n258 Cl1-    0.738700    0.237100    0.514678    2.000000 Uiso  1.0000
 Cl6_A2_n258 Cl1-    0.261300    0.762900    0.514678    2.000000 Uiso  1.0000
 Li3_A2_n258 Li+    0.000000    0.500000    0.515000    2.000000 Uiso  0.2700
 Sc1_A2_n259 Sc3+    0.500000    0.000000    0.517000    2.000000 Uiso  1.0000
 Cl1_A2_n259 Cl1-    0.742100    0.768700    0.517000    2.000000 Uiso  1.0000
 Cl2_A2_n259 Cl1-    0.257900    0.231300    0.517000    2.000000 Uiso  1.0000
 Cl3_A2_n259 Cl1-    0.738700    0.237100    0.517322    2.000000 Uiso  1.0000
 Cl4_A2_n259 Cl1-    0.261300    0.762900    0.517322    2.000000 Uiso  1.0000
 Cl5_A2_n259 Cl1-    0.738700    0.237100    0.516678    2.000000 Uiso  1.0000
 Cl6_A2_n259 Cl1-    0.261300    0.762900    0.516678    2.000000 Uiso  1.0000
 Li3_A2_n259 Li+    0.000000    0.500000    0.517000    2.000000 Uiso  0.2700
 Sc1_A2_n260 Sc3+    0.500000    0.000000    0.519000    2.000000 Uiso  1.0000
 Cl1_A2_n260 Cl1-    0.742100    0.768700    0.519000    2.000000 Uiso  1.0000
 Cl2_A2_n260 Cl1-    0.257900    0.231300    0.519000    2.000000 Uiso  1.0000
 Cl3_A2_n260 Cl1-    0.738700    0.237100    0.519322    2.000000 Uiso  1.0000
 Cl4_A2_n260 Cl1-    0.261300    0.762900    0.519322    2.000000 Uiso  1.0000
 Cl5_A2_n260 Cl1-    0.738700    0.237100    0.518678    2.000000 Uiso  1.0000
 Cl6_A2_n260 Cl1-    0.261300    0.762900    0.518678    2.000000 Uiso  1.0000
 Li3_A2_n260 Li+    0.000000    0.500000    0.519000    2.000000 Uiso  0.2700
 Sc1_A2_n261 Sc3+    0.500000    0.000000    0.521000    2.000000 Uiso  1.0000
 Cl1_A2_n261 Cl1-    0.742100    0.768700    0.521000    2.000000 Uiso  1.0000
 Cl2_A2_n261 Cl1-    0.257900    0.231300    0.521000    2.000000 Uiso  1.0000
 Cl3_A2_n261 Cl1-    0.738700    0.237100    0.521322    2.000000 Uiso  1.0000
 Cl4_A2_n261 Cl1-    0.261300    0.762900    0.521322    2.000000 Uiso  1.0000
 Cl5_A2_n261 Cl1-    0.738700    0.237100    0.520678    2.000000 Uiso  1.0000
 Cl6_A2_n261 Cl1-    0.261300    0.762900    0.520678    2.000000 Uiso  1.0000
 Li3_A2_n261 Li+    0.000000    0.500000    0.521000    2.000000 Uiso  0.2700
 Sc1_A2_n262 Sc3+    0.500000    0.000000    0.523000    2.000000 Uiso  1.0000
 Cl1_A2_n262 Cl1-    0.742100    0.768700    0.523000    2.000000 Uiso  1.0000
 Cl2_A2_n262 Cl1-    0.257900    0.231300    0.523000    2.000000 Uiso  1.0000
 Cl3_A2_n262 Cl1-    0.738700    0.237100    0.523322    2.000000 Uiso  1.0000
 Cl4_A2_n262 Cl1-    0.261300    0.762900    0.523322    2.000000 Uiso  1.0000
 Cl5_A2_n262 Cl1-    0.738700    0.237100    0.522678    2.000000 Uiso  1.0000
 Cl6_A2_n262 Cl1-    0.261300    0.762900    0.522678    2.000000 Uiso  1.0000
 Li3_A2_n262 Li+    0.000000    0.500000    0.523000    2.000000 Uiso  0.2700
 Sc1_A2_n263_fault Sc3+    0.500000    0.333330    0.525000    2.000000 Uiso  1.0000
 Cl1_A2_n263_fault Cl1-    0.742100    1.102030    0.525000    2.000000 Uiso  1.0000
 Cl2_A2_n263_fault Cl1-    0.257900    0.564630    0.525000    2.000000 Uiso  1.0000
 Cl3_A2_n263_fault Cl1-    0.738700    0.570430    0.525322    2.000000 Uiso  1.0000
 Cl4_A2_n263_fault Cl1-    0.261300    1.096230    0.525322    2.000000 Uiso  1.0000
 Cl5_A2_n263_fault Cl1-    0.738700    0.570430    0.524678    2.000000 Uiso  1.0000
 Cl6_A2_n263_fault Cl1-    0.261300    1.096230    0.524678    2.000000 Uiso  1.0000
 Li3_A2_n263_fault Li+    0.000000    0.833330    0.525000    2.000000 Uiso  0.2700
 Sc1_A2_n264 Sc3+    0.500000    0.000000    0.527000    2.000000 Uiso  1.0000
 Cl1_A2_n264 Cl1-    0.742100    0.768700    0.527000    2.000000 Uiso  1.0000
 Cl2_A2_n264 Cl1-    0.257900    0.231300    0.527000    2.000000 Uiso  1.0000
 Cl3_A2_n264 Cl1-    0.738700    0.237100    0.527322    2.000000 Uiso  1.0000
 Cl4_A2_n264 Cl1-    0.261300    0.762900    0.527322    2.000000 Uiso  1.0000
 Cl5_A2_n264 Cl1-    0.738700    0.237100    0.526678    2.000000 Uiso  1.0000
 Cl6_A2_n264 Cl1-    0.261300    0.762900    0.526678    2.000000 Uiso  1.0000
 Li3_A2_n264 Li+    0.000000    0.500000    0.527000    2.000000 Uiso  0.2700
 Sc1_A2_n265_fault Sc3+    0.500000    0.333330    0.529000    2.000000 Uiso  1.0000
 Cl1_A2_n265_fault Cl1-    0.742100    1.102030    0.529000    2.000000 Uiso  1.0000
 Cl2_A2_n265_fault Cl1-    0.257900    0.564630    0.529000    2.000000 Uiso  1.0000
 Cl3_A2_n265_fault Cl1-    0.738700    0.570430    0.529322    2.000000 Uiso  1.0000
 Cl4_A2_n265_fault Cl1-    0.261300    1.096230    0.529322    2.000000 Uiso  1.0000
 Cl5_A2_n265_fault Cl1-    0.738700    0.570430    0.528678    2.000000 Uiso  1.0000
 Cl6_A2_n265_fault Cl1-    0.261300    1.096230    0.528678    2.000000 Uiso  1.0000
 Li3_A2_n265_fault Li+    0.000000    0.833330    0.529000    2.000000 Uiso  0.2700
 Sc1_A2_n266 Sc3+    0.500000    0.000000    0.531000    2.000000 Uiso  1.0000
 Cl1_A2_n266 Cl1-    0.742100    0.768700    0.531000    2.000000 Uiso  1.0000
 Cl2_A2_n266 Cl1-    0.257900    0.231300    0.531000    2.000000 Uiso  1.0000
 Cl3_A2_n266 Cl1-    0.738700    0.237100    0.531322    2.000000 Uiso  1.0000
 Cl4_A2_n266 Cl1-    0.261300    0.762900    0.531322    2.000000 Uiso  1.0000
 Cl5_A2_n266 Cl1-    0.738700    0.237100    0.530678    2.000000 Uiso  1.0000
 Cl6_A2_n266 Cl1-    0.261300    0.762900    0.530678    2.000000 Uiso  1.0000
 Li3_A2_n266 Li+    0.000000    0.500000    0.531000    2.000000 Uiso  0.2700
 Sc1_A2_n267_fault Sc3+    0.500000    0.333330    0.533000    2.000000 Uiso  1.0000
 Cl1_A2_n267_fault Cl1-    0.742100    1.102030    0.533000    2.000000 Uiso  1.0000
 Cl2_A2_n267_fault Cl1-    0.257900    0.564630    0.533000    2.000000 Uiso  1.0000
 Cl3_A2_n267_fault Cl1-    0.738700    0.570430    0.533322    2.000000 Uiso  1.0000
 Cl4_A2_n267_fault Cl1-    0.261300    1.096230    0.533322    2.000000 Uiso  1.0000
 Cl5_A2_n267_fault Cl1-    0.738700    0.570430    0.532678    2.000000 Uiso  1.0000
 Cl6_A2_n267_fault Cl1-    0.261300    1.096230    0.532678    2.000000 Uiso  1.0000
 Li3_A2_n267_fault Li+    0.000000    0.833330    0.533000    2.000000 Uiso  0.2700
 Sc1_A2_n268 Sc3+    0.500000    0.000000    0.535000    2.000000 Uiso  1.0000
 Cl1_A2_n268 Cl1-    0.742100    0.768700    0.535000    2.000000 Uiso  1.0000
 Cl2_A2_n268 Cl1-    0.257900    0.231300    0.535000    2.000000 Uiso  1.0000
 Cl3_A2_n268 Cl1-    0.738700    0.237100    0.535322    2.000000 Uiso  1.0000
 Cl4_A2_n268 Cl1-    0.261300    0.762900    0.535322    2.000000 Uiso  1.0000
 Cl5_A2_n268 Cl1-    0.738700    0.237100    0.534678    2.000000 Uiso  1.0000
 Cl6_A2_n268 Cl1-    0.261300    0.762900    0.534678    2.000000 Uiso  1.0000
 Li3_A2_n268 Li+    0.000000    0.500000    0.535000    2.000000 Uiso  0.2700
 Sc1_A2_n269 Sc3+    0.500000    0.000000    0.537000    2.000000 Uiso  1.0000
 Cl1_A2_n269 Cl1-    0.742100    0.768700    0.537000    2.000000 Uiso  1.0000
 Cl2_A2_n269 Cl1-    0.257900    0.231300    0.537000    2.000000 Uiso  1.0000
 Cl3_A2_n269 Cl1-    0.738700    0.237100    0.537322    2.000000 Uiso  1.0000
 Cl4_A2_n269 Cl1-    0.261300    0.762900    0.537322    2.000000 Uiso  1.0000
 Cl5_A2_n269 Cl1-    0.738700    0.237100    0.536678    2.000000 Uiso  1.0000
 Cl6_A2_n269 Cl1-    0.261300    0.762900    0.536678    2.000000 Uiso  1.0000
 Li3_A2_n269 Li+    0.000000    0.500000    0.537000    2.000000 Uiso  0.2700
 Sc1_A2_n270 Sc3+    0.500000    0.000000    0.539000    2.000000 Uiso  1.0000
 Cl1_A2_n270 Cl1-    0.742100    0.768700    0.539000    2.000000 Uiso  1.0000
 Cl2_A2_n270 Cl1-    0.257900    0.231300    0.539000    2.000000 Uiso  1.0000
 Cl3_A2_n270 Cl1-    0.738700    0.237100    0.539322    2.000000 Uiso  1.0000
 Cl4_A2_n270 Cl1-    0.261300    0.762900    0.539322    2.000000 Uiso  1.0000
 Cl5_A2_n270 Cl1-    0.738700    0.237100    0.538678    2.000000 Uiso  1.0000
 Cl6_A2_n270 Cl1-    0.261300    0.762900    0.538678    2.000000 Uiso  1.0000
 Li3_A2_n270 Li+    0.000000    0.500000    0.539000    2.000000 Uiso  0.2700
 Sc1_A2_n271 Sc3+    0.500000    0.000000    0.541000    2.000000 Uiso  1.0000
 Cl1_A2_n271 Cl1-    0.742100    0.768700    0.541000    2.000000 Uiso  1.0000
 Cl2_A2_n271 Cl1-    0.257900    0.231300    0.541000    2.000000 Uiso  1.0000
 Cl3_A2_n271 Cl1-    0.738700    0.237100    0.541322    2.000000 Uiso  1.0000
 Cl4_A2_n271 Cl1-    0.261300    0.762900    0.541322    2.000000 Uiso  1.0000
 Cl5_A2_n271 Cl1-    0.738700    0.237100    0.540678    2.000000 Uiso  1.0000
 Cl6_A2_n271 Cl1-    0.261300    0.762900    0.540678    2.000000 Uiso  1.0000
 Li3_A2_n271 Li+    0.000000    0.500000    0.541000    2.000000 Uiso  0.2700
 Sc1_A2_n272 Sc3+    0.500000    0.000000    0.543000    2.000000 Uiso  1.0000
 Cl1_A2_n272 Cl1-    0.742100    0.768700    0.543000    2.000000 Uiso  1.0000
 Cl2_A2_n272 Cl1-    0.257900    0.231300    0.543000    2.000000 Uiso  1.0000
 Cl3_A2_n272 Cl1-    0.738700    0.237100    0.543322    2.000000 Uiso  1.0000
 Cl4_A2_n272 Cl1-    0.261300    0.762900    0.543322    2.000000 Uiso  1.0000
 Cl5_A2_n272 Cl1-    0.738700    0.237100    0.542678    2.000000 Uiso  1.0000
 Cl6_A2_n272 Cl1-    0.261300    0.762900    0.542678    2.000000 Uiso  1.0000
 Li3_A2_n272 Li+    0.000000    0.500000    0.543000    2.000000 Uiso  0.2700
 Sc1_A2_n273 Sc3+    0.500000    0.000000    0.545000    2.000000 Uiso  1.0000
 Cl1_A2_n273 Cl1-    0.742100    0.768700    0.545000    2.000000 Uiso  1.0000
 Cl2_A2_n273 Cl1-    0.257900    0.231300    0.545000    2.000000 Uiso  1.0000
 Cl3_A2_n273 Cl1-    0.738700    0.237100    0.545322    2.000000 Uiso  1.0000
 Cl4_A2_n273 Cl1-    0.261300    0.762900    0.545322    2.000000 Uiso  1.0000
 Cl5_A2_n273 Cl1-    0.738700    0.237100    0.544678    2.000000 Uiso  1.0000
 Cl6_A2_n273 Cl1-    0.261300    0.762900    0.544678    2.000000 Uiso  1.0000
 Li3_A2_n273 Li+    0.000000    0.500000    0.545000    2.000000 Uiso  0.2700
 Sc1_A2_n274 Sc3+    0.500000    0.000000    0.547000    2.000000 Uiso  1.0000
 Cl1_A2_n274 Cl1-    0.742100    0.768700    0.547000    2.000000 Uiso  1.0000
 Cl2_A2_n274 Cl1-    0.257900    0.231300    0.547000    2.000000 Uiso  1.0000
 Cl3_A2_n274 Cl1-    0.738700    0.237100    0.547322    2.000000 Uiso  1.0000
 Cl4_A2_n274 Cl1-    0.261300    0.762900    0.547322    2.000000 Uiso  1.0000
 Cl5_A2_n274 Cl1-    0.738700    0.237100    0.546678    2.000000 Uiso  1.0000
 Cl6_A2_n274 Cl1-    0.261300    0.762900    0.546678    2.000000 Uiso  1.0000
 Li3_A2_n274 Li+    0.000000    0.500000    0.547000    2.000000 Uiso  0.2700
 Sc1_A2_n275_fault Sc3+    0.500000    0.333330    0.549000    2.000000 Uiso  1.0000
 Cl1_A2_n275_fault Cl1-    0.742100    1.102030    0.549000    2.000000 Uiso  1.0000
 Cl2_A2_n275_fault Cl1-    0.257900    0.564630    0.549000    2.000000 Uiso  1.0000
 Cl3_A2_n275_fault Cl1-    0.738700    0.570430    0.549322    2.000000 Uiso  1.0000
 Cl4_A2_n275_fault Cl1-    0.261300    1.096230    0.549322    2.000000 Uiso  1.0000
 Cl5_A2_n275_fault Cl1-    0.738700    0.570430    0.548678    2.000000 Uiso  1.0000
 Cl6_A2_n275_fault Cl1-    0.261300    1.096230    0.548678    2.000000 Uiso  1.0000
 Li3_A2_n275_fault Li+    0.000000    0.833330    0.549000    2.000000 Uiso  0.2700
 Sc1_A2_n276_fault Sc3+    0.500000    0.333330    0.551000    2.000000 Uiso  1.0000
 Cl1_A2_n276_fault Cl1-    0.742100    1.102030    0.551000    2.000000 Uiso  1.0000
 Cl2_A2_n276_fault Cl1-    0.257900    0.564630    0.551000    2.000000 Uiso  1.0000
 Cl3_A2_n276_fault Cl1-    0.738700    0.570430    0.551322    2.000000 Uiso  1.0000
 Cl4_A2_n276_fault Cl1-    0.261300    1.096230    0.551322    2.000000 Uiso  1.0000
 Cl5_A2_n276_fault Cl1-    0.738700    0.570430    0.550678    2.000000 Uiso  1.0000
 Cl6_A2_n276_fault Cl1-    0.261300    1.096230    0.550678    2.000000 Uiso  1.0000
 Li3_A2_n276_fault Li+    0.000000    0.833330    0.551000    2.000000 Uiso  0.2700
 Sc1_A2_n277 Sc3+    0.500000    0.000000    0.553000    2.000000 Uiso  1.0000
 Cl1_A2_n277 Cl1-    0.742100    0.768700    0.553000    2.000000 Uiso  1.0000
 Cl2_A2_n277 Cl1-    0.257900    0.231300    0.553000    2.000000 Uiso  1.0000
 Cl3_A2_n277 Cl1-    0.738700    0.237100    0.553322    2.000000 Uiso  1.0000
 Cl4_A2_n277 Cl1-    0.261300    0.762900    0.553322    2.000000 Uiso  1.0000
 Cl5_A2_n277 Cl1-    0.738700    0.237100    0.552678    2.000000 Uiso  1.0000
 Cl6_A2_n277 Cl1-    0.261300    0.762900    0.552678    2.000000 Uiso  1.0000
 Li3_A2_n277 Li+    0.000000    0.500000    0.553000    2.000000 Uiso  0.2700
 Sc1_A2_n278 Sc3+    0.500000    0.000000    0.555000    2.000000 Uiso  1.0000
 Cl1_A2_n278 Cl1-    0.742100    0.768700    0.555000    2.000000 Uiso  1.0000
 Cl2_A2_n278 Cl1-    0.257900    0.231300    0.555000    2.000000 Uiso  1.0000
 Cl3_A2_n278 Cl1-    0.738700    0.237100    0.555322    2.000000 Uiso  1.0000
 Cl4_A2_n278 Cl1-    0.261300    0.762900    0.555322    2.000000 Uiso  1.0000
 Cl5_A2_n278 Cl1-    0.738700    0.237100    0.554678    2.000000 Uiso  1.0000
 Cl6_A2_n278 Cl1-    0.261300    0.762900    0.554678    2.000000 Uiso  1.0000
 Li3_A2_n278 Li+    0.000000    0.500000    0.555000    2.000000 Uiso  0.2700
 Sc1_A2_n279 Sc3+    0.500000    0.000000    0.557000    2.000000 Uiso  1.0000
 Cl1_A2_n279 Cl1-    0.742100    0.768700    0.557000    2.000000 Uiso  1.0000
 Cl2_A2_n279 Cl1-    0.257900    0.231300    0.557000    2.000000 Uiso  1.0000
 Cl3_A2_n279 Cl1-    0.738700    0.237100    0.557322    2.000000 Uiso  1.0000
 Cl4_A2_n279 Cl1-    0.261300    0.762900    0.557322    2.000000 Uiso  1.0000
 Cl5_A2_n279 Cl1-    0.738700    0.237100    0.556678    2.000000 Uiso  1.0000
 Cl6_A2_n279 Cl1-    0.261300    0.762900    0.556678    2.000000 Uiso  1.0000
 Li3_A2_n279 Li+    0.000000    0.500000    0.557000    2.000000 Uiso  0.2700
 Sc1_A2_n280 Sc3+    0.500000    0.000000    0.559000    2.000000 Uiso  1.0000
 Cl1_A2_n280 Cl1-    0.742100    0.768700    0.559000    2.000000 Uiso  1.0000
 Cl2_A2_n280 Cl1-    0.257900    0.231300    0.559000    2.000000 Uiso  1.0000
 Cl3_A2_n280 Cl1-    0.738700    0.237100    0.559322    2.000000 Uiso  1.0000
 Cl4_A2_n280 Cl1-    0.261300    0.762900    0.559322    2.000000 Uiso  1.0000
 Cl5_A2_n280 Cl1-    0.738700    0.237100    0.558678    2.000000 Uiso  1.0000
 Cl6_A2_n280 Cl1-    0.261300    0.762900    0.558678    2.000000 Uiso  1.0000
 Li3_A2_n280 Li+    0.000000    0.500000    0.559000    2.000000 Uiso  0.2700
 Sc1_A2_n281 Sc3+    0.500000    0.000000    0.561000    2.000000 Uiso  1.0000
 Cl1_A2_n281 Cl1-    0.742100    0.768700    0.561000    2.000000 Uiso  1.0000
 Cl2_A2_n281 Cl1-    0.257900    0.231300    0.561000    2.000000 Uiso  1.0000
 Cl3_A2_n281 Cl1-    0.738700    0.237100    0.561322    2.000000 Uiso  1.0000
 Cl4_A2_n281 Cl1-    0.261300    0.762900    0.561322    2.000000 Uiso  1.0000
 Cl5_A2_n281 Cl1-    0.738700    0.237100    0.560678    2.000000 Uiso  1.0000
 Cl6_A2_n281 Cl1-    0.261300    0.762900    0.560678    2.000000 Uiso  1.0000
 Li3_A2_n281 Li+    0.000000    0.500000    0.561000    2.000000 Uiso  0.2700
 Sc1_A2_n282 Sc3+    0.500000    0.000000    0.563000    2.000000 Uiso  1.0000
 Cl1_A2_n282 Cl1-    0.742100    0.768700    0.563000    2.000000 Uiso  1.0000
 Cl2_A2_n282 Cl1-    0.257900    0.231300    0.563000    2.000000 Uiso  1.0000
 Cl3_A2_n282 Cl1-    0.738700    0.237100    0.563322    2.000000 Uiso  1.0000
 Cl4_A2_n282 Cl1-    0.261300    0.762900    0.563322    2.000000 Uiso  1.0000
 Cl5_A2_n282 Cl1-    0.738700    0.237100    0.562678    2.000000 Uiso  1.0000
 Cl6_A2_n282 Cl1-    0.261300    0.762900    0.562678    2.000000 Uiso  1.0000
 Li3_A2_n282 Li+    0.000000    0.500000    0.563000    2.000000 Uiso  0.2700
 Sc1_A2_n283 Sc3+    0.500000    0.000000    0.565000    2.000000 Uiso  1.0000
 Cl1_A2_n283 Cl1-    0.742100    0.768700    0.565000    2.000000 Uiso  1.0000
 Cl2_A2_n283 Cl1-    0.257900    0.231300    0.565000    2.000000 Uiso  1.0000
 Cl3_A2_n283 Cl1-    0.738700    0.237100    0.565322    2.000000 Uiso  1.0000
 Cl4_A2_n283 Cl1-    0.261300    0.762900    0.565322    2.000000 Uiso  1.0000
 Cl5_A2_n283 Cl1-    0.738700    0.237100    0.564678    2.000000 Uiso  1.0000
 Cl6_A2_n283 Cl1-    0.261300    0.762900    0.564678    2.000000 Uiso  1.0000
 Li3_A2_n283 Li+    0.000000    0.500000    0.565000    2.000000 Uiso  0.2700
 Sc1_A2_n284_fault Sc3+    0.500000    0.333330    0.567000    2.000000 Uiso  1.0000
 Cl1_A2_n284_fault Cl1-    0.742100    1.102030    0.567000    2.000000 Uiso  1.0000
 Cl2_A2_n284_fault Cl1-    0.257900    0.564630    0.567000    2.000000 Uiso  1.0000
 Cl3_A2_n284_fault Cl1-    0.738700    0.570430    0.567322    2.000000 Uiso  1.0000
 Cl4_A2_n284_fault Cl1-    0.261300    1.096230    0.567322    2.000000 Uiso  1.0000
 Cl5_A2_n284_fault Cl1-    0.738700    0.570430    0.566678    2.000000 Uiso  1.0000
 Cl6_A2_n284_fault Cl1-    0.261300    1.096230    0.566678    2.000000 Uiso  1.0000
 Li3_A2_n284_fault Li+    0.000000    0.833330    0.567000    2.000000 Uiso  0.2700
 Sc1_A2_n285 Sc3+    0.500000    0.000000    0.569000    2.000000 Uiso  1.0000
 Cl1_A2_n285 Cl1-    0.742100    0.768700    0.569000    2.000000 Uiso  1.0000
 Cl2_A2_n285 Cl1-    0.257900    0.231300    0.569000    2.000000 Uiso  1.0000
 Cl3_A2_n285 Cl1-    0.738700    0.237100    0.569322    2.000000 Uiso  1.0000
 Cl4_A2_n285 Cl1-    0.261300    0.762900    0.569322    2.000000 Uiso  1.0000
 Cl5_A2_n285 Cl1-    0.738700    0.237100    0.568678    2.000000 Uiso  1.0000
 Cl6_A2_n285 Cl1-    0.261300    0.762900    0.568678    2.000000 Uiso  1.0000
 Li3_A2_n285 Li+    0.000000    0.500000    0.569000    2.000000 Uiso  0.2700
 Sc1_A2_n286_fault Sc3+    0.500000    0.333330    0.571000    2.000000 Uiso  1.0000
 Cl1_A2_n286_fault Cl1-    0.742100    1.102030    0.571000    2.000000 Uiso  1.0000
 Cl2_A2_n286_fault Cl1-    0.257900    0.564630    0.571000    2.000000 Uiso  1.0000
 Cl3_A2_n286_fault Cl1-    0.738700    0.570430    0.571322    2.000000 Uiso  1.0000
 Cl4_A2_n286_fault Cl1-    0.261300    1.096230    0.571322    2.000000 Uiso  1.0000
 Cl5_A2_n286_fault Cl1-    0.738700    0.570430    0.570678    2.000000 Uiso  1.0000
 Cl6_A2_n286_fault Cl1-    0.261300    1.096230    0.570678    2.000000 Uiso  1.0000
 Li3_A2_n286_fault Li+    0.000000    0.833330    0.571000    2.000000 Uiso  0.2700
 Sc1_A2_n287_fault Sc3+    0.500000    0.333330    0.573000    2.000000 Uiso  1.0000
 Cl1_A2_n287_fault Cl1-    0.742100    1.102030    0.573000    2.000000 Uiso  1.0000
 Cl2_A2_n287_fault Cl1-    0.257900    0.564630    0.573000    2.000000 Uiso  1.0000
 Cl3_A2_n287_fault Cl1-    0.738700    0.570430    0.573322    2.000000 Uiso  1.0000
 Cl4_A2_n287_fault Cl1-    0.261300    1.096230    0.573322    2.000000 Uiso  1.0000
 Cl5_A2_n287_fault Cl1-    0.738700    0.570430    0.572678    2.000000 Uiso  1.0000
 Cl6_A2_n287_fault Cl1-    0.261300    1.096230    0.572678    2.000000 Uiso  1.0000
 Li3_A2_n287_fault Li+    0.000000    0.833330    0.573000    2.000000 Uiso  0.2700
 Sc1_A2_n288_fault Sc3+    0.500000    0.333330    0.575000    2.000000 Uiso  1.0000
 Cl1_A2_n288_fault Cl1-    0.742100    1.102030    0.575000    2.000000 Uiso  1.0000
 Cl2_A2_n288_fault Cl1-    0.257900    0.564630    0.575000    2.000000 Uiso  1.0000
 Cl3_A2_n288_fault Cl1-    0.738700    0.570430    0.575322    2.000000 Uiso  1.0000
 Cl4_A2_n288_fault Cl1-    0.261300    1.096230    0.575322    2.000000 Uiso  1.0000
 Cl5_A2_n288_fault Cl1-    0.738700    0.570430    0.574678    2.000000 Uiso  1.0000
 Cl6_A2_n288_fault Cl1-    0.261300    1.096230    0.574678    2.000000 Uiso  1.0000
 Li3_A2_n288_fault Li+    0.000000    0.833330    0.575000    2.000000 Uiso  0.2700
 Sc1_A2_n289 Sc3+    0.500000    0.000000    0.577000    2.000000 Uiso  1.0000
 Cl1_A2_n289 Cl1-    0.742100    0.768700    0.577000    2.000000 Uiso  1.0000
 Cl2_A2_n289 Cl1-    0.257900    0.231300    0.577000    2.000000 Uiso  1.0000
 Cl3_A2_n289 Cl1-    0.738700    0.237100    0.577322    2.000000 Uiso  1.0000
 Cl4_A2_n289 Cl1-    0.261300    0.762900    0.577322    2.000000 Uiso  1.0000
 Cl5_A2_n289 Cl1-    0.738700    0.237100    0.576678    2.000000 Uiso  1.0000
 Cl6_A2_n289 Cl1-    0.261300    0.762900    0.576678    2.000000 Uiso  1.0000
 Li3_A2_n289 Li+    0.000000    0.500000    0.577000    2.000000 Uiso  0.2700
 Sc1_A2_n290_fault Sc3+    0.500000    0.333330    0.579000    2.000000 Uiso  1.0000
 Cl1_A2_n290_fault Cl1-    0.742100    1.102030    0.579000    2.000000 Uiso  1.0000
 Cl2_A2_n290_fault Cl1-    0.257900    0.564630    0.579000    2.000000 Uiso  1.0000
 Cl3_A2_n290_fault Cl1-    0.738700    0.570430    0.579322    2.000000 Uiso  1.0000
 Cl4_A2_n290_fault Cl1-    0.261300    1.096230    0.579322    2.000000 Uiso  1.0000
 Cl5_A2_n290_fault Cl1-    0.738700    0.570430    0.578678    2.000000 Uiso  1.0000
 Cl6_A2_n290_fault Cl1-    0.261300    1.096230    0.578678    2.000000 Uiso  1.0000
 Li3_A2_n290_fault Li+    0.000000    0.833330    0.579000    2.000000 Uiso  0.2700
 Sc1_A2_n291 Sc3+    0.500000    0.000000    0.581000    2.000000 Uiso  1.0000
 Cl1_A2_n291 Cl1-    0.742100    0.768700    0.581000    2.000000 Uiso  1.0000
 Cl2_A2_n291 Cl1-    0.257900    0.231300    0.581000    2.000000 Uiso  1.0000
 Cl3_A2_n291 Cl1-    0.738700    0.237100    0.581322    2.000000 Uiso  1.0000
 Cl4_A2_n291 Cl1-    0.261300    0.762900    0.581322    2.000000 Uiso  1.0000
 Cl5_A2_n291 Cl1-    0.738700    0.237100    0.580678    2.000000 Uiso  1.0000
 Cl6_A2_n291 Cl1-    0.261300    0.762900    0.580678    2.000000 Uiso  1.0000
 Li3_A2_n291 Li+    0.000000    0.500000    0.581000    2.000000 Uiso  0.2700
 Sc1_A2_n292 Sc3+    0.500000    0.000000    0.583000    2.000000 Uiso  1.0000
 Cl1_A2_n292 Cl1-    0.742100    0.768700    0.583000    2.000000 Uiso  1.0000
 Cl2_A2_n292 Cl1-    0.257900    0.231300    0.583000    2.000000 Uiso  1.0000
 Cl3_A2_n292 Cl1-    0.738700    0.237100    0.583322    2.000000 Uiso  1.0000
 Cl4_A2_n292 Cl1-    0.261300    0.762900    0.583322    2.000000 Uiso  1.0000
 Cl5_A2_n292 Cl1-    0.738700    0.237100    0.582678    2.000000 Uiso  1.0000
 Cl6_A2_n292 Cl1-    0.261300    0.762900    0.582678    2.000000 Uiso  1.0000
 Li3_A2_n292 Li+    0.000000    0.500000    0.583000    2.000000 Uiso  0.2700
 Sc1_A2_n293 Sc3+    0.500000    0.000000    0.585000    2.000000 Uiso  1.0000
 Cl1_A2_n293 Cl1-    0.742100    0.768700    0.585000    2.000000 Uiso  1.0000
 Cl2_A2_n293 Cl1-    0.257900    0.231300    0.585000    2.000000 Uiso  1.0000
 Cl3_A2_n293 Cl1-    0.738700    0.237100    0.585322    2.000000 Uiso  1.0000
 Cl4_A2_n293 Cl1-    0.261300    0.762900    0.585322    2.000000 Uiso  1.0000
 Cl5_A2_n293 Cl1-    0.738700    0.237100    0.584678    2.000000 Uiso  1.0000
 Cl6_A2_n293 Cl1-    0.261300    0.762900    0.584678    2.000000 Uiso  1.0000
 Li3_A2_n293 Li+    0.000000    0.500000    0.585000    2.000000 Uiso  0.2700
 Sc1_A2_n294 Sc3+    0.500000    0.000000    0.587000    2.000000 Uiso  1.0000
 Cl1_A2_n294 Cl1-    0.742100    0.768700    0.587000    2.000000 Uiso  1.0000
 Cl2_A2_n294 Cl1-    0.257900    0.231300    0.587000    2.000000 Uiso  1.0000
 Cl3_A2_n294 Cl1-    0.738700    0.237100    0.587322    2.000000 Uiso  1.0000
 Cl4_A2_n294 Cl1-    0.261300    0.762900    0.587322    2.000000 Uiso  1.0000
 Cl5_A2_n294 Cl1-    0.738700    0.237100    0.586678    2.000000 Uiso  1.0000
 Cl6_A2_n294 Cl1-    0.261300    0.762900    0.586678    2.000000 Uiso  1.0000
 Li3_A2_n294 Li+    0.000000    0.500000    0.587000    2.000000 Uiso  0.2700
 Sc1_A2_n295_fault Sc3+    0.500000    0.333330    0.589000    2.000000 Uiso  1.0000
 Cl1_A2_n295_fault Cl1-    0.742100    1.102030    0.589000    2.000000 Uiso  1.0000
 Cl2_A2_n295_fault Cl1-    0.257900    0.564630    0.589000    2.000000 Uiso  1.0000
 Cl3_A2_n295_fault Cl1-    0.738700    0.570430    0.589322    2.000000 Uiso  1.0000
 Cl4_A2_n295_fault Cl1-    0.261300    1.096230    0.589322    2.000000 Uiso  1.0000
 Cl5_A2_n295_fault Cl1-    0.738700    0.570430    0.588678    2.000000 Uiso  1.0000
 Cl6_A2_n295_fault Cl1-    0.261300    1.096230    0.588678    2.000000 Uiso  1.0000
 Li3_A2_n295_fault Li+    0.000000    0.833330    0.589000    2.000000 Uiso  0.2700
 Sc1_A2_n296 Sc3+    0.500000    0.000000    0.591000    2.000000 Uiso  1.0000
 Cl1_A2_n296 Cl1-    0.742100    0.768700    0.591000    2.000000 Uiso  1.0000
 Cl2_A2_n296 Cl1-    0.257900    0.231300    0.591000    2.000000 Uiso  1.0000
 Cl3_A2_n296 Cl1-    0.738700    0.237100    0.591322    2.000000 Uiso  1.0000
 Cl4_A2_n296 Cl1-    0.261300    0.762900    0.591322    2.000000 Uiso  1.0000
 Cl5_A2_n296 Cl1-    0.738700    0.237100    0.590678    2.000000 Uiso  1.0000
 Cl6_A2_n296 Cl1-    0.261300    0.762900    0.590678    2.000000 Uiso  1.0000
 Li3_A2_n296 Li+    0.000000    0.500000    0.591000    2.000000 Uiso  0.2700
 Sc1_A2_n297 Sc3+    0.500000    0.000000    0.593000    2.000000 Uiso  1.0000
 Cl1_A2_n297 Cl1-    0.742100    0.768700    0.593000    2.000000 Uiso  1.0000
 Cl2_A2_n297 Cl1-    0.257900    0.231300    0.593000    2.000000 Uiso  1.0000
 Cl3_A2_n297 Cl1-    0.738700    0.237100    0.593322    2.000000 Uiso  1.0000
 Cl4_A2_n297 Cl1-    0.261300    0.762900    0.593322    2.000000 Uiso  1.0000
 Cl5_A2_n297 Cl1-    0.738700    0.237100    0.592678    2.000000 Uiso  1.0000
 Cl6_A2_n297 Cl1-    0.261300    0.762900    0.592678    2.000000 Uiso  1.0000
 Li3_A2_n297 Li+    0.000000    0.500000    0.593000    2.000000 Uiso  0.2700
 Sc1_A2_n298 Sc3+    0.500000    0.000000    0.595000    2.000000 Uiso  1.0000
 Cl1_A2_n298 Cl1-    0.742100    0.768700    0.595000    2.000000 Uiso  1.0000
 Cl2_A2_n298 Cl1-    0.257900    0.231300    0.595000    2.000000 Uiso  1.0000
 Cl3_A2_n298 Cl1-    0.738700    0.237100    0.595322    2.000000 Uiso  1.0000
 Cl4_A2_n298 Cl1-    0.261300    0.762900    0.595322    2.000000 Uiso  1.0000
 Cl5_A2_n298 Cl1-    0.738700    0.237100    0.594678    2.000000 Uiso  1.0000
 Cl6_A2_n298 Cl1-    0.261300    0.762900    0.594678    2.000000 Uiso  1.0000
 Li3_A2_n298 Li+    0.000000    0.500000    0.595000    2.000000 Uiso  0.2700
 Sc1_A2_n299_fault Sc3+    0.500000    0.333330    0.597000    2.000000 Uiso  1.0000
 Cl1_A2_n299_fault Cl1-    0.742100    1.102030    0.597000    2.000000 Uiso  1.0000
 Cl2_A2_n299_fault Cl1-    0.257900    0.564630    0.597000    2.000000 Uiso  1.0000
 Cl3_A2_n299_fault Cl1-    0.738700    0.570430    0.597322    2.000000 Uiso  1.0000
 Cl4_A2_n299_fault Cl1-    0.261300    1.096230    0.597322    2.000000 Uiso  1.0000
 Cl5_A2_n299_fault Cl1-    0.738700    0.570430    0.596678    2.000000 Uiso  1.0000
 Cl6_A2_n299_fault Cl1-    0.261300    1.096230    0.596678    2.000000 Uiso  1.0000
 Li3_A2_n299_fault Li+    0.000000    0.833330    0.597000    2.000000 Uiso  0.2700
 Sc1_A2_n300 Sc3+    0.500000    0.000000    0.599000    2.000000 Uiso  1.0000
 Cl1_A2_n300 Cl1-    0.742100    0.768700    0.599000    2.000000 Uiso  1.0000
 Cl2_A2_n300 Cl1-    0.257900    0.231300    0.599000    2.000000 Uiso  1.0000
 Cl3_A2_n300 Cl1-    0.738700    0.237100    0.599322    2.000000 Uiso  1.0000
 Cl4_A2_n300 Cl1-    0.261300    0.762900    0.599322    2.000000 Uiso  1.0000
 Cl5_A2_n300 Cl1-    0.738700    0.237100    0.598678    2.000000 Uiso  1.0000
 Cl6_A2_n300 Cl1-    0.261300    0.762900    0.598678    2.000000 Uiso  1.0000
 Li3_A2_n300 Li+    0.000000    0.500000    0.599000    2.000000 Uiso  0.2700
 Sc1_A2_n301 Sc3+    0.500000    0.000000    0.601000    2.000000 Uiso  1.0000
 Cl1_A2_n301 Cl1-    0.742100    0.768700    0.601000    2.000000 Uiso  1.0000
 Cl2_A2_n301 Cl1-    0.257900    0.231300    0.601000    2.000000 Uiso  1.0000
 Cl3_A2_n301 Cl1-    0.738700    0.237100    0.601322    2.000000 Uiso  1.0000
 Cl4_A2_n301 Cl1-    0.261300    0.762900    0.601322    2.000000 Uiso  1.0000
 Cl5_A2_n301 Cl1-    0.738700    0.237100    0.600678    2.000000 Uiso  1.0000
 Cl6_A2_n301 Cl1-    0.261300    0.762900    0.600678    2.000000 Uiso  1.0000
 Li3_A2_n301 Li+    0.000000    0.500000    0.601000    2.000000 Uiso  0.2700
 Sc1_A2_n302 Sc3+    0.500000    0.000000    0.603000    2.000000 Uiso  1.0000
 Cl1_A2_n302 Cl1-    0.742100    0.768700    0.603000    2.000000 Uiso  1.0000
 Cl2_A2_n302 Cl1-    0.257900    0.231300    0.603000    2.000000 Uiso  1.0000
 Cl3_A2_n302 Cl1-    0.738700    0.237100    0.603322    2.000000 Uiso  1.0000
 Cl4_A2_n302 Cl1-    0.261300    0.762900    0.603322    2.000000 Uiso  1.0000
 Cl5_A2_n302 Cl1-    0.738700    0.237100    0.602678    2.000000 Uiso  1.0000
 Cl6_A2_n302 Cl1-    0.261300    0.762900    0.602678    2.000000 Uiso  1.0000
 Li3_A2_n302 Li+    0.000000    0.500000    0.603000    2.000000 Uiso  0.2700
 Sc1_A2_n303_fault Sc3+    0.500000    0.333330    0.605000    2.000000 Uiso  1.0000
 Cl1_A2_n303_fault Cl1-    0.742100    1.102030    0.605000    2.000000 Uiso  1.0000
 Cl2_A2_n303_fault Cl1-    0.257900    0.564630    0.605000    2.000000 Uiso  1.0000
 Cl3_A2_n303_fault Cl1-    0.738700    0.570430    0.605322    2.000000 Uiso  1.0000
 Cl4_A2_n303_fault Cl1-    0.261300    1.096230    0.605322    2.000000 Uiso  1.0000
 Cl5_A2_n303_fault Cl1-    0.738700    0.570430    0.604678    2.000000 Uiso  1.0000
 Cl6_A2_n303_fault Cl1-    0.261300    1.096230    0.604678    2.000000 Uiso  1.0000
 Li3_A2_n303_fault Li+    0.000000    0.833330    0.605000    2.000000 Uiso  0.2700
 Sc1_A2_n304_fault Sc3+    0.500000    0.333330    0.607000    2.000000 Uiso  1.0000
 Cl1_A2_n304_fault Cl1-    0.742100    1.102030    0.607000    2.000000 Uiso  1.0000
 Cl2_A2_n304_fault Cl1-    0.257900    0.564630    0.607000    2.000000 Uiso  1.0000
 Cl3_A2_n304_fault Cl1-    0.738700    0.570430    0.607322    2.000000 Uiso  1.0000
 Cl4_A2_n304_fault Cl1-    0.261300    1.096230    0.607322    2.000000 Uiso  1.0000
 Cl5_A2_n304_fault Cl1-    0.738700    0.570430    0.606678    2.000000 Uiso  1.0000
 Cl6_A2_n304_fault Cl1-    0.261300    1.096230    0.606678    2.000000 Uiso  1.0000
 Li3_A2_n304_fault Li+    0.000000    0.833330    0.607000    2.000000 Uiso  0.2700
 Sc1_A2_n305 Sc3+    0.500000    0.000000    0.609000    2.000000 Uiso  1.0000
 Cl1_A2_n305 Cl1-    0.742100    0.768700    0.609000    2.000000 Uiso  1.0000
 Cl2_A2_n305 Cl1-    0.257900    0.231300    0.609000    2.000000 Uiso  1.0000
 Cl3_A2_n305 Cl1-    0.738700    0.237100    0.609322    2.000000 Uiso  1.0000
 Cl4_A2_n305 Cl1-    0.261300    0.762900    0.609322    2.000000 Uiso  1.0000
 Cl5_A2_n305 Cl1-    0.738700    0.237100    0.608678    2.000000 Uiso  1.0000
 Cl6_A2_n305 Cl1-    0.261300    0.762900    0.608678    2.000000 Uiso  1.0000
 Li3_A2_n305 Li+    0.000000    0.500000    0.609000    2.000000 Uiso  0.2700
 Sc1_A2_n306_fault Sc3+    0.500000    0.333330    0.611000    2.000000 Uiso  1.0000
 Cl1_A2_n306_fault Cl1-    0.742100    1.102030    0.611000    2.000000 Uiso  1.0000
 Cl2_A2_n306_fault Cl1-    0.257900    0.564630    0.611000    2.000000 Uiso  1.0000
 Cl3_A2_n306_fault Cl1-    0.738700    0.570430    0.611322    2.000000 Uiso  1.0000
 Cl4_A2_n306_fault Cl1-    0.261300    1.096230    0.611322    2.000000 Uiso  1.0000
 Cl5_A2_n306_fault Cl1-    0.738700    0.570430    0.610678    2.000000 Uiso  1.0000
 Cl6_A2_n306_fault Cl1-    0.261300    1.096230    0.610678    2.000000 Uiso  1.0000
 Li3_A2_n306_fault Li+    0.000000    0.833330    0.611000    2.000000 Uiso  0.2700
 Sc1_A2_n307 Sc3+    0.500000    0.000000    0.613000    2.000000 Uiso  1.0000
 Cl1_A2_n307 Cl1-    0.742100    0.768700    0.613000    2.000000 Uiso  1.0000
 Cl2_A2_n307 Cl1-    0.257900    0.231300    0.613000    2.000000 Uiso  1.0000
 Cl3_A2_n307 Cl1-    0.738700    0.237100    0.613322    2.000000 Uiso  1.0000
 Cl4_A2_n307 Cl1-    0.261300    0.762900    0.613322    2.000000 Uiso  1.0000
 Cl5_A2_n307 Cl1-    0.738700    0.237100    0.612678    2.000000 Uiso  1.0000
 Cl6_A2_n307 Cl1-    0.261300    0.762900    0.612678    2.000000 Uiso  1.0000
 Li3_A2_n307 Li+    0.000000    0.500000    0.613000    2.000000 Uiso  0.2700
 Sc1_A2_n308 Sc3+    0.500000    0.000000    0.615000    2.000000 Uiso  1.0000
 Cl1_A2_n308 Cl1-    0.742100    0.768700    0.615000    2.000000 Uiso  1.0000
 Cl2_A2_n308 Cl1-    0.257900    0.231300    0.615000    2.000000 Uiso  1.0000
 Cl3_A2_n308 Cl1-    0.738700    0.237100    0.615322    2.000000 Uiso  1.0000
 Cl4_A2_n308 Cl1-    0.261300    0.762900    0.615322    2.000000 Uiso  1.0000
 Cl5_A2_n308 Cl1-    0.738700    0.237100    0.614678    2.000000 Uiso  1.0000
 Cl6_A2_n308 Cl1-    0.261300    0.762900    0.614678    2.000000 Uiso  1.0000
 Li3_A2_n308 Li+    0.000000    0.500000    0.615000    2.000000 Uiso  0.2700
 Sc1_A2_n309_fault Sc3+    0.500000    0.333330    0.617000    2.000000 Uiso  1.0000
 Cl1_A2_n309_fault Cl1-    0.742100    1.102030    0.617000    2.000000 Uiso  1.0000
 Cl2_A2_n309_fault Cl1-    0.257900    0.564630    0.617000    2.000000 Uiso  1.0000
 Cl3_A2_n309_fault Cl1-    0.738700    0.570430    0.617322    2.000000 Uiso  1.0000
 Cl4_A2_n309_fault Cl1-    0.261300    1.096230    0.617322    2.000000 Uiso  1.0000
 Cl5_A2_n309_fault Cl1-    0.738700    0.570430    0.616678    2.000000 Uiso  1.0000
 Cl6_A2_n309_fault Cl1-    0.261300    1.096230    0.616678    2.000000 Uiso  1.0000
 Li3_A2_n309_fault Li+    0.000000    0.833330    0.617000    2.000000 Uiso  0.2700
 Sc1_A2_n310 Sc3+    0.500000    0.000000    0.619000    2.000000 Uiso  1.0000
 Cl1_A2_n310 Cl1-    0.742100    0.768700    0.619000    2.000000 Uiso  1.0000
 Cl2_A2_n310 Cl1-    0.257900    0.231300    0.619000    2.000000 Uiso  1.0000
 Cl3_A2_n310 Cl1-    0.738700    0.237100    0.619322    2.000000 Uiso  1.0000
 Cl4_A2_n310 Cl1-    0.261300    0.762900    0.619322    2.000000 Uiso  1.0000
 Cl5_A2_n310 Cl1-    0.738700    0.237100    0.618678    2.000000 Uiso  1.0000
 Cl6_A2_n310 Cl1-    0.261300    0.762900    0.618678    2.000000 Uiso  1.0000
 Li3_A2_n310 Li+    0.000000    0.500000    0.619000    2.000000 Uiso  0.2700
 Sc1_A2_n311 Sc3+    0.500000    0.000000    0.621000    2.000000 Uiso  1.0000
 Cl1_A2_n311 Cl1-    0.742100    0.768700    0.621000    2.000000 Uiso  1.0000
 Cl2_A2_n311 Cl1-    0.257900    0.231300    0.621000    2.000000 Uiso  1.0000
 Cl3_A2_n311 Cl1-    0.738700    0.237100    0.621322    2.000000 Uiso  1.0000
 Cl4_A2_n311 Cl1-    0.261300    0.762900    0.621322    2.000000 Uiso  1.0000
 Cl5_A2_n311 Cl1-    0.738700    0.237100    0.620678    2.000000 Uiso  1.0000
 Cl6_A2_n311 Cl1-    0.261300    0.762900    0.620678    2.000000 Uiso  1.0000
 Li3_A2_n311 Li+    0.000000    0.500000    0.621000    2.000000 Uiso  0.2700
 Sc1_A2_n312 Sc3+    0.500000    0.000000    0.623000    2.000000 Uiso  1.0000
 Cl1_A2_n312 Cl1-    0.742100    0.768700    0.623000    2.000000 Uiso  1.0000
 Cl2_A2_n312 Cl1-    0.257900    0.231300    0.623000    2.000000 Uiso  1.0000
 Cl3_A2_n312 Cl1-    0.738700    0.237100    0.623322    2.000000 Uiso  1.0000
 Cl4_A2_n312 Cl1-    0.261300    0.762900    0.623322    2.000000 Uiso  1.0000
 Cl5_A2_n312 Cl1-    0.738700    0.237100    0.622678    2.000000 Uiso  1.0000
 Cl6_A2_n312 Cl1-    0.261300    0.762900    0.622678    2.000000 Uiso  1.0000
 Li3_A2_n312 Li+    0.000000    0.500000    0.623000    2.000000 Uiso  0.2700
 Sc1_A2_n313 Sc3+    0.500000    0.000000    0.625000    2.000000 Uiso  1.0000
 Cl1_A2_n313 Cl1-    0.742100    0.768700    0.625000    2.000000 Uiso  1.0000
 Cl2_A2_n313 Cl1-    0.257900    0.231300    0.625000    2.000000 Uiso  1.0000
 Cl3_A2_n313 Cl1-    0.738700    0.237100    0.625322    2.000000 Uiso  1.0000
 Cl4_A2_n313 Cl1-    0.261300    0.762900    0.625322    2.000000 Uiso  1.0000
 Cl5_A2_n313 Cl1-    0.738700    0.237100    0.624678    2.000000 Uiso  1.0000
 Cl6_A2_n313 Cl1-    0.261300    0.762900    0.624678    2.000000 Uiso  1.0000
 Li3_A2_n313 Li+    0.000000    0.500000    0.625000    2.000000 Uiso  0.2700
 Sc1_A2_n314 Sc3+    0.500000    0.000000    0.627000    2.000000 Uiso  1.0000
 Cl1_A2_n314 Cl1-    0.742100    0.768700    0.627000    2.000000 Uiso  1.0000
 Cl2_A2_n314 Cl1-    0.257900    0.231300    0.627000    2.000000 Uiso  1.0000
 Cl3_A2_n314 Cl1-    0.738700    0.237100    0.627322    2.000000 Uiso  1.0000
 Cl4_A2_n314 Cl1-    0.261300    0.762900    0.627322    2.000000 Uiso  1.0000
 Cl5_A2_n314 Cl1-    0.738700    0.237100    0.626678    2.000000 Uiso  1.0000
 Cl6_A2_n314 Cl1-    0.261300    0.762900    0.626678    2.000000 Uiso  1.0000
 Li3_A2_n314 Li+    0.000000    0.500000    0.627000    2.000000 Uiso  0.2700
 Sc1_A2_n315 Sc3+    0.500000    0.000000    0.629000    2.000000 Uiso  1.0000
 Cl1_A2_n315 Cl1-    0.742100    0.768700    0.629000    2.000000 Uiso  1.0000
 Cl2_A2_n315 Cl1-    0.257900    0.231300    0.629000    2.000000 Uiso  1.0000
 Cl3_A2_n315 Cl1-    0.738700    0.237100    0.629322    2.000000 Uiso  1.0000
 Cl4_A2_n315 Cl1-    0.261300    0.762900    0.629322    2.000000 Uiso  1.0000
 Cl5_A2_n315 Cl1-    0.738700    0.237100    0.628678    2.000000 Uiso  1.0000
 Cl6_A2_n315 Cl1-    0.261300    0.762900    0.628678    2.000000 Uiso  1.0000
 Li3_A2_n315 Li+    0.000000    0.500000    0.629000    2.000000 Uiso  0.2700
 Sc1_A2_n316_fault Sc3+    0.500000    0.333330    0.631000    2.000000 Uiso  1.0000
 Cl1_A2_n316_fault Cl1-    0.742100    1.102030    0.631000    2.000000 Uiso  1.0000
 Cl2_A2_n316_fault Cl1-    0.257900    0.564630    0.631000    2.000000 Uiso  1.0000
 Cl3_A2_n316_fault Cl1-    0.738700    0.570430    0.631322    2.000000 Uiso  1.0000
 Cl4_A2_n316_fault Cl1-    0.261300    1.096230    0.631322    2.000000 Uiso  1.0000
 Cl5_A2_n316_fault Cl1-    0.738700    0.570430    0.630678    2.000000 Uiso  1.0000
 Cl6_A2_n316_fault Cl1-    0.261300    1.096230    0.630678    2.000000 Uiso  1.0000
 Li3_A2_n316_fault Li+    0.000000    0.833330    0.631000    2.000000 Uiso  0.2700
 Sc1_A2_n317 Sc3+    0.500000    0.000000    0.633000    2.000000 Uiso  1.0000
 Cl1_A2_n317 Cl1-    0.742100    0.768700    0.633000    2.000000 Uiso  1.0000
 Cl2_A2_n317 Cl1-    0.257900    0.231300    0.633000    2.000000 Uiso  1.0000
 Cl3_A2_n317 Cl1-    0.738700    0.237100    0.633322    2.000000 Uiso  1.0000
 Cl4_A2_n317 Cl1-    0.261300    0.762900    0.633322    2.000000 Uiso  1.0000
 Cl5_A2_n317 Cl1-    0.738700    0.237100    0.632678    2.000000 Uiso  1.0000
 Cl6_A2_n317 Cl1-    0.261300    0.762900    0.632678    2.000000 Uiso  1.0000
 Li3_A2_n317 Li+    0.000000    0.500000    0.633000    2.000000 Uiso  0.2700
 Sc1_A2_n318_fault Sc3+    0.500000    0.333330    0.635000    2.000000 Uiso  1.0000
 Cl1_A2_n318_fault Cl1-    0.742100    1.102030    0.635000    2.000000 Uiso  1.0000
 Cl2_A2_n318_fault Cl1-    0.257900    0.564630    0.635000    2.000000 Uiso  1.0000
 Cl3_A2_n318_fault Cl1-    0.738700    0.570430    0.635322    2.000000 Uiso  1.0000
 Cl4_A2_n318_fault Cl1-    0.261300    1.096230    0.635322    2.000000 Uiso  1.0000
 Cl5_A2_n318_fault Cl1-    0.738700    0.570430    0.634678    2.000000 Uiso  1.0000
 Cl6_A2_n318_fault Cl1-    0.261300    1.096230    0.634678    2.000000 Uiso  1.0000
 Li3_A2_n318_fault Li+    0.000000    0.833330    0.635000    2.000000 Uiso  0.2700
 Sc1_A2_n319 Sc3+    0.500000    0.000000    0.637000    2.000000 Uiso  1.0000
 Cl1_A2_n319 Cl1-    0.742100    0.768700    0.637000    2.000000 Uiso  1.0000
 Cl2_A2_n319 Cl1-    0.257900    0.231300    0.637000    2.000000 Uiso  1.0000
 Cl3_A2_n319 Cl1-    0.738700    0.237100    0.637322    2.000000 Uiso  1.0000
 Cl4_A2_n319 Cl1-    0.261300    0.762900    0.637322    2.000000 Uiso  1.0000
 Cl5_A2_n319 Cl1-    0.738700    0.237100    0.636678    2.000000 Uiso  1.0000
 Cl6_A2_n319 Cl1-    0.261300    0.762900    0.636678    2.000000 Uiso  1.0000
 Li3_A2_n319 Li+    0.000000    0.500000    0.637000    2.000000 Uiso  0.2700
 Sc1_A2_n320 Sc3+    0.500000    0.000000    0.639000    2.000000 Uiso  1.0000
 Cl1_A2_n320 Cl1-    0.742100    0.768700    0.639000    2.000000 Uiso  1.0000
 Cl2_A2_n320 Cl1-    0.257900    0.231300    0.639000    2.000000 Uiso  1.0000
 Cl3_A2_n320 Cl1-    0.738700    0.237100    0.639322    2.000000 Uiso  1.0000
 Cl4_A2_n320 Cl1-    0.261300    0.762900    0.639322    2.000000 Uiso  1.0000
 Cl5_A2_n320 Cl1-    0.738700    0.237100    0.638678    2.000000 Uiso  1.0000
 Cl6_A2_n320 Cl1-    0.261300    0.762900    0.638678    2.000000 Uiso  1.0000
 Li3_A2_n320 Li+    0.000000    0.500000    0.639000    2.000000 Uiso  0.2700
 Sc1_A2_n321 Sc3+    0.500000    0.000000    0.641000    2.000000 Uiso  1.0000
 Cl1_A2_n321 Cl1-    0.742100    0.768700    0.641000    2.000000 Uiso  1.0000
 Cl2_A2_n321 Cl1-    0.257900    0.231300    0.641000    2.000000 Uiso  1.0000
 Cl3_A2_n321 Cl1-    0.738700    0.237100    0.641322    2.000000 Uiso  1.0000
 Cl4_A2_n321 Cl1-    0.261300    0.762900    0.641322    2.000000 Uiso  1.0000
 Cl5_A2_n321 Cl1-    0.738700    0.237100    0.640678    2.000000 Uiso  1.0000
 Cl6_A2_n321 Cl1-    0.261300    0.762900    0.640678    2.000000 Uiso  1.0000
 Li3_A2_n321 Li+    0.000000    0.500000    0.641000    2.000000 Uiso  0.2700
 Sc1_A2_n322_fault Sc3+    0.500000    0.333330    0.643000    2.000000 Uiso  1.0000
 Cl1_A2_n322_fault Cl1-    0.742100    1.102030    0.643000    2.000000 Uiso  1.0000
 Cl2_A2_n322_fault Cl1-    0.257900    0.564630    0.643000    2.000000 Uiso  1.0000
 Cl3_A2_n322_fault Cl1-    0.738700    0.570430    0.643322    2.000000 Uiso  1.0000
 Cl4_A2_n322_fault Cl1-    0.261300    1.096230    0.643322    2.000000 Uiso  1.0000
 Cl5_A2_n322_fault Cl1-    0.738700    0.570430    0.642678    2.000000 Uiso  1.0000
 Cl6_A2_n322_fault Cl1-    0.261300    1.096230    0.642678    2.000000 Uiso  1.0000
 Li3_A2_n322_fault Li+    0.000000    0.833330    0.643000    2.000000 Uiso  0.2700
 Sc1_A2_n323 Sc3+    0.500000    0.000000    0.645000    2.000000 Uiso  1.0000
 Cl1_A2_n323 Cl1-    0.742100    0.768700    0.645000    2.000000 Uiso  1.0000
 Cl2_A2_n323 Cl1-    0.257900    0.231300    0.645000    2.000000 Uiso  1.0000
 Cl3_A2_n323 Cl1-    0.738700    0.237100    0.645322    2.000000 Uiso  1.0000
 Cl4_A2_n323 Cl1-    0.261300    0.762900    0.645322    2.000000 Uiso  1.0000
 Cl5_A2_n323 Cl1-    0.738700    0.237100    0.644678    2.000000 Uiso  1.0000
 Cl6_A2_n323 Cl1-    0.261300    0.762900    0.644678    2.000000 Uiso  1.0000
 Li3_A2_n323 Li+    0.000000    0.500000    0.645000    2.000000 Uiso  0.2700
 Sc1_A2_n324 Sc3+    0.500000    0.000000    0.647000    2.000000 Uiso  1.0000
 Cl1_A2_n324 Cl1-    0.742100    0.768700    0.647000    2.000000 Uiso  1.0000
 Cl2_A2_n324 Cl1-    0.257900    0.231300    0.647000    2.000000 Uiso  1.0000
 Cl3_A2_n324 Cl1-    0.738700    0.237100    0.647322    2.000000 Uiso  1.0000
 Cl4_A2_n324 Cl1-    0.261300    0.762900    0.647322    2.000000 Uiso  1.0000
 Cl5_A2_n324 Cl1-    0.738700    0.237100    0.646678    2.000000 Uiso  1.0000
 Cl6_A2_n324 Cl1-    0.261300    0.762900    0.646678    2.000000 Uiso  1.0000
 Li3_A2_n324 Li+    0.000000    0.500000    0.647000    2.000000 Uiso  0.2700
 Sc1_A2_n325 Sc3+    0.500000    0.000000    0.649000    2.000000 Uiso  1.0000
 Cl1_A2_n325 Cl1-    0.742100    0.768700    0.649000    2.000000 Uiso  1.0000
 Cl2_A2_n325 Cl1-    0.257900    0.231300    0.649000    2.000000 Uiso  1.0000
 Cl3_A2_n325 Cl1-    0.738700    0.237100    0.649322    2.000000 Uiso  1.0000
 Cl4_A2_n325 Cl1-    0.261300    0.762900    0.649322    2.000000 Uiso  1.0000
 Cl5_A2_n325 Cl1-    0.738700    0.237100    0.648678    2.000000 Uiso  1.0000
 Cl6_A2_n325 Cl1-    0.261300    0.762900    0.648678    2.000000 Uiso  1.0000
 Li3_A2_n325 Li+    0.000000    0.500000    0.649000    2.000000 Uiso  0.2700
 Sc1_A2_n326 Sc3+    0.500000    0.000000    0.651000    2.000000 Uiso  1.0000
 Cl1_A2_n326 Cl1-    0.742100    0.768700    0.651000    2.000000 Uiso  1.0000
 Cl2_A2_n326 Cl1-    0.257900    0.231300    0.651000    2.000000 Uiso  1.0000
 Cl3_A2_n326 Cl1-    0.738700    0.237100    0.651322    2.000000 Uiso  1.0000
 Cl4_A2_n326 Cl1-    0.261300    0.762900    0.651322    2.000000 Uiso  1.0000
 Cl5_A2_n326 Cl1-    0.738700    0.237100    0.650678    2.000000 Uiso  1.0000
 Cl6_A2_n326 Cl1-    0.261300    0.762900    0.650678    2.000000 Uiso  1.0000
 Li3_A2_n326 Li+    0.000000    0.500000    0.651000    2.000000 Uiso  0.2700
 Sc1_A2_n327 Sc3+    0.500000    0.000000    0.653000    2.000000 Uiso  1.0000
 Cl1_A2_n327 Cl1-    0.742100    0.768700    0.653000    2.000000 Uiso  1.0000
 Cl2_A2_n327 Cl1-    0.257900    0.231300    0.653000    2.000000 Uiso  1.0000
 Cl3_A2_n327 Cl1-    0.738700    0.237100    0.653322    2.000000 Uiso  1.0000
 Cl4_A2_n327 Cl1-    0.261300    0.762900    0.653322    2.000000 Uiso  1.0000
 Cl5_A2_n327 Cl1-    0.738700    0.237100    0.652678    2.000000 Uiso  1.0000
 Cl6_A2_n327 Cl1-    0.261300    0.762900    0.652678    2.000000 Uiso  1.0000
 Li3_A2_n327 Li+    0.000000    0.500000    0.653000    2.000000 Uiso  0.2700
 Sc1_A2_n328 Sc3+    0.500000    0.000000    0.655000    2.000000 Uiso  1.0000
 Cl1_A2_n328 Cl1-    0.742100    0.768700    0.655000    2.000000 Uiso  1.0000
 Cl2_A2_n328 Cl1-    0.257900    0.231300    0.655000    2.000000 Uiso  1.0000
 Cl3_A2_n328 Cl1-    0.738700    0.237100    0.655322    2.000000 Uiso  1.0000
 Cl4_A2_n328 Cl1-    0.261300    0.762900    0.655322    2.000000 Uiso  1.0000
 Cl5_A2_n328 Cl1-    0.738700    0.237100    0.654678    2.000000 Uiso  1.0000
 Cl6_A2_n328 Cl1-    0.261300    0.762900    0.654678    2.000000 Uiso  1.0000
 Li3_A2_n328 Li+    0.000000    0.500000    0.655000    2.000000 Uiso  0.2700
 Sc1_A2_n329 Sc3+    0.500000    0.000000    0.657000    2.000000 Uiso  1.0000
 Cl1_A2_n329 Cl1-    0.742100    0.768700    0.657000    2.000000 Uiso  1.0000
 Cl2_A2_n329 Cl1-    0.257900    0.231300    0.657000    2.000000 Uiso  1.0000
 Cl3_A2_n329 Cl1-    0.738700    0.237100    0.657322    2.000000 Uiso  1.0000
 Cl4_A2_n329 Cl1-    0.261300    0.762900    0.657322    2.000000 Uiso  1.0000
 Cl5_A2_n329 Cl1-    0.738700    0.237100    0.656678    2.000000 Uiso  1.0000
 Cl6_A2_n329 Cl1-    0.261300    0.762900    0.656678    2.000000 Uiso  1.0000
 Li3_A2_n329 Li+    0.000000    0.500000    0.657000    2.000000 Uiso  0.2700
 Sc1_A2_n330 Sc3+    0.500000    0.000000    0.659000    2.000000 Uiso  1.0000
 Cl1_A2_n330 Cl1-    0.742100    0.768700    0.659000    2.000000 Uiso  1.0000
 Cl2_A2_n330 Cl1-    0.257900    0.231300    0.659000    2.000000 Uiso  1.0000
 Cl3_A2_n330 Cl1-    0.738700    0.237100    0.659322    2.000000 Uiso  1.0000
 Cl4_A2_n330 Cl1-    0.261300    0.762900    0.659322    2.000000 Uiso  1.0000
 Cl5_A2_n330 Cl1-    0.738700    0.237100    0.658678    2.000000 Uiso  1.0000
 Cl6_A2_n330 Cl1-    0.261300    0.762900    0.658678    2.000000 Uiso  1.0000
 Li3_A2_n330 Li+    0.000000    0.500000    0.659000    2.000000 Uiso  0.2700
 Sc1_A2_n331 Sc3+    0.500000    0.000000    0.661000    2.000000 Uiso  1.0000
 Cl1_A2_n331 Cl1-    0.742100    0.768700    0.661000    2.000000 Uiso  1.0000
 Cl2_A2_n331 Cl1-    0.257900    0.231300    0.661000    2.000000 Uiso  1.0000
 Cl3_A2_n331 Cl1-    0.738700    0.237100    0.661322    2.000000 Uiso  1.0000
 Cl4_A2_n331 Cl1-    0.261300    0.762900    0.661322    2.000000 Uiso  1.0000
 Cl5_A2_n331 Cl1-    0.738700    0.237100    0.660678    2.000000 Uiso  1.0000
 Cl6_A2_n331 Cl1-    0.261300    0.762900    0.660678    2.000000 Uiso  1.0000
 Li3_A2_n331 Li+    0.000000    0.500000    0.661000    2.000000 Uiso  0.2700
 Sc1_A2_n332 Sc3+    0.500000    0.000000    0.663000    2.000000 Uiso  1.0000
 Cl1_A2_n332 Cl1-    0.742100    0.768700    0.663000    2.000000 Uiso  1.0000
 Cl2_A2_n332 Cl1-    0.257900    0.231300    0.663000    2.000000 Uiso  1.0000
 Cl3_A2_n332 Cl1-    0.738700    0.237100    0.663322    2.000000 Uiso  1.0000
 Cl4_A2_n332 Cl1-    0.261300    0.762900    0.663322    2.000000 Uiso  1.0000
 Cl5_A2_n332 Cl1-    0.738700    0.237100    0.662678    2.000000 Uiso  1.0000
 Cl6_A2_n332 Cl1-    0.261300    0.762900    0.662678    2.000000 Uiso  1.0000
 Li3_A2_n332 Li+    0.000000    0.500000    0.663000    2.000000 Uiso  0.2700
 Sc1_A2_n333 Sc3+    0.500000    0.000000    0.665000    2.000000 Uiso  1.0000
 Cl1_A2_n333 Cl1-    0.742100    0.768700    0.665000    2.000000 Uiso  1.0000
 Cl2_A2_n333 Cl1-    0.257900    0.231300    0.665000    2.000000 Uiso  1.0000
 Cl3_A2_n333 Cl1-    0.738700    0.237100    0.665322    2.000000 Uiso  1.0000
 Cl4_A2_n333 Cl1-    0.261300    0.762900    0.665322    2.000000 Uiso  1.0000
 Cl5_A2_n333 Cl1-    0.738700    0.237100    0.664678    2.000000 Uiso  1.0000
 Cl6_A2_n333 Cl1-    0.261300    0.762900    0.664678    2.000000 Uiso  1.0000
 Li3_A2_n333 Li+    0.000000    0.500000    0.665000    2.000000 Uiso  0.2700
 Sc1_A2_n334 Sc3+    0.500000    0.000000    0.667000    2.000000 Uiso  1.0000
 Cl1_A2_n334 Cl1-    0.742100    0.768700    0.667000    2.000000 Uiso  1.0000
 Cl2_A2_n334 Cl1-    0.257900    0.231300    0.667000    2.000000 Uiso  1.0000
 Cl3_A2_n334 Cl1-    0.738700    0.237100    0.667322    2.000000 Uiso  1.0000
 Cl4_A2_n334 Cl1-    0.261300    0.762900    0.667322    2.000000 Uiso  1.0000
 Cl5_A2_n334 Cl1-    0.738700    0.237100    0.666678    2.000000 Uiso  1.0000
 Cl6_A2_n334 Cl1-    0.261300    0.762900    0.666678    2.000000 Uiso  1.0000
 Li3_A2_n334 Li+    0.000000    0.500000    0.667000    2.000000 Uiso  0.2700
 Sc1_A2_n335 Sc3+    0.500000    0.000000    0.669000    2.000000 Uiso  1.0000
 Cl1_A2_n335 Cl1-    0.742100    0.768700    0.669000    2.000000 Uiso  1.0000
 Cl2_A2_n335 Cl1-    0.257900    0.231300    0.669000    2.000000 Uiso  1.0000
 Cl3_A2_n335 Cl1-    0.738700    0.237100    0.669322    2.000000 Uiso  1.0000
 Cl4_A2_n335 Cl1-    0.261300    0.762900    0.669322    2.000000 Uiso  1.0000
 Cl5_A2_n335 Cl1-    0.738700    0.237100    0.668678    2.000000 Uiso  1.0000
 Cl6_A2_n335 Cl1-    0.261300    0.762900    0.668678    2.000000 Uiso  1.0000
 Li3_A2_n335 Li+    0.000000    0.500000    0.669000    2.000000 Uiso  0.2700
 Sc1_A2_n336_fault Sc3+    0.500000    0.333330    0.671000    2.000000 Uiso  1.0000
 Cl1_A2_n336_fault Cl1-    0.742100    1.102030    0.671000    2.000000 Uiso  1.0000
 Cl2_A2_n336_fault Cl1-    0.257900    0.564630    0.671000    2.000000 Uiso  1.0000
 Cl3_A2_n336_fault Cl1-    0.738700    0.570430    0.671322    2.000000 Uiso  1.0000
 Cl4_A2_n336_fault Cl1-    0.261300    1.096230    0.671322    2.000000 Uiso  1.0000
 Cl5_A2_n336_fault Cl1-    0.738700    0.570430    0.670678    2.000000 Uiso  1.0000
 Cl6_A2_n336_fault Cl1-    0.261300    1.096230    0.670678    2.000000 Uiso  1.0000
 Li3_A2_n336_fault Li+    0.000000    0.833330    0.671000    2.000000 Uiso  0.2700
 Sc1_A2_n337 Sc3+    0.500000    0.000000    0.673000    2.000000 Uiso  1.0000
 Cl1_A2_n337 Cl1-    0.742100    0.768700    0.673000    2.000000 Uiso  1.0000
 Cl2_A2_n337 Cl1-    0.257900    0.231300    0.673000    2.000000 Uiso  1.0000
 Cl3_A2_n337 Cl1-    0.738700    0.237100    0.673322    2.000000 Uiso  1.0000
 Cl4_A2_n337 Cl1-    0.261300    0.762900    0.673322    2.000000 Uiso  1.0000
 Cl5_A2_n337 Cl1-    0.738700    0.237100    0.672678    2.000000 Uiso  1.0000
 Cl6_A2_n337 Cl1-    0.261300    0.762900    0.672678    2.000000 Uiso  1.0000
 Li3_A2_n337 Li+    0.000000    0.500000    0.673000    2.000000 Uiso  0.2700
 Sc1_A2_n338 Sc3+    0.500000    0.000000    0.675000    2.000000 Uiso  1.0000
 Cl1_A2_n338 Cl1-    0.742100    0.768700    0.675000    2.000000 Uiso  1.0000
 Cl2_A2_n338 Cl1-    0.257900    0.231300    0.675000    2.000000 Uiso  1.0000
 Cl3_A2_n338 Cl1-    0.738700    0.237100    0.675322    2.000000 Uiso  1.0000
 Cl4_A2_n338 Cl1-    0.261300    0.762900    0.675322    2.000000 Uiso  1.0000
 Cl5_A2_n338 Cl1-    0.738700    0.237100    0.674678    2.000000 Uiso  1.0000
 Cl6_A2_n338 Cl1-    0.261300    0.762900    0.674678    2.000000 Uiso  1.0000
 Li3_A2_n338 Li+    0.000000    0.500000    0.675000    2.000000 Uiso  0.2700
 Sc1_A2_n339 Sc3+    0.500000    0.000000    0.677000    2.000000 Uiso  1.0000
 Cl1_A2_n339 Cl1-    0.742100    0.768700    0.677000    2.000000 Uiso  1.0000
 Cl2_A2_n339 Cl1-    0.257900    0.231300    0.677000    2.000000 Uiso  1.0000
 Cl3_A2_n339 Cl1-    0.738700    0.237100    0.677322    2.000000 Uiso  1.0000
 Cl4_A2_n339 Cl1-    0.261300    0.762900    0.677322    2.000000 Uiso  1.0000
 Cl5_A2_n339 Cl1-    0.738700    0.237100    0.676678    2.000000 Uiso  1.0000
 Cl6_A2_n339 Cl1-    0.261300    0.762900    0.676678    2.000000 Uiso  1.0000
 Li3_A2_n339 Li+    0.000000    0.500000    0.677000    2.000000 Uiso  0.2700
 Sc1_A2_n340 Sc3+    0.500000    0.000000    0.679000    2.000000 Uiso  1.0000
 Cl1_A2_n340 Cl1-    0.742100    0.768700    0.679000    2.000000 Uiso  1.0000
 Cl2_A2_n340 Cl1-    0.257900    0.231300    0.679000    2.000000 Uiso  1.0000
 Cl3_A2_n340 Cl1-    0.738700    0.237100    0.679322    2.000000 Uiso  1.0000
 Cl4_A2_n340 Cl1-    0.261300    0.762900    0.679322    2.000000 Uiso  1.0000
 Cl5_A2_n340 Cl1-    0.738700    0.237100    0.678678    2.000000 Uiso  1.0000
 Cl6_A2_n340 Cl1-    0.261300    0.762900    0.678678    2.000000 Uiso  1.0000
 Li3_A2_n340 Li+    0.000000    0.500000    0.679000    2.000000 Uiso  0.2700
 Sc1_A2_n341 Sc3+    0.500000    0.000000    0.681000    2.000000 Uiso  1.0000
 Cl1_A2_n341 Cl1-    0.742100    0.768700    0.681000    2.000000 Uiso  1.0000
 Cl2_A2_n341 Cl1-    0.257900    0.231300    0.681000    2.000000 Uiso  1.0000
 Cl3_A2_n341 Cl1-    0.738700    0.237100    0.681322    2.000000 Uiso  1.0000
 Cl4_A2_n341 Cl1-    0.261300    0.762900    0.681322    2.000000 Uiso  1.0000
 Cl5_A2_n341 Cl1-    0.738700    0.237100    0.680678    2.000000 Uiso  1.0000
 Cl6_A2_n341 Cl1-    0.261300    0.762900    0.680678    2.000000 Uiso  1.0000
 Li3_A2_n341 Li+    0.000000    0.500000    0.681000    2.000000 Uiso  0.2700
 Sc1_A2_n342_fault Sc3+    0.500000    0.333330    0.683000    2.000000 Uiso  1.0000
 Cl1_A2_n342_fault Cl1-    0.742100    1.102030    0.683000    2.000000 Uiso  1.0000
 Cl2_A2_n342_fault Cl1-    0.257900    0.564630    0.683000    2.000000 Uiso  1.0000
 Cl3_A2_n342_fault Cl1-    0.738700    0.570430    0.683322    2.000000 Uiso  1.0000
 Cl4_A2_n342_fault Cl1-    0.261300    1.096230    0.683322    2.000000 Uiso  1.0000
 Cl5_A2_n342_fault Cl1-    0.738700    0.570430    0.682678    2.000000 Uiso  1.0000
 Cl6_A2_n342_fault Cl1-    0.261300    1.096230    0.682678    2.000000 Uiso  1.0000
 Li3_A2_n342_fault Li+    0.000000    0.833330    0.683000    2.000000 Uiso  0.2700
 Sc1_A2_n343 Sc3+    0.500000    0.000000    0.685000    2.000000 Uiso  1.0000
 Cl1_A2_n343 Cl1-    0.742100    0.768700    0.685000    2.000000 Uiso  1.0000
 Cl2_A2_n343 Cl1-    0.257900    0.231300    0.685000    2.000000 Uiso  1.0000
 Cl3_A2_n343 Cl1-    0.738700    0.237100    0.685322    2.000000 Uiso  1.0000
 Cl4_A2_n343 Cl1-    0.261300    0.762900    0.685322    2.000000 Uiso  1.0000
 Cl5_A2_n343 Cl1-    0.738700    0.237100    0.684678    2.000000 Uiso  1.0000
 Cl6_A2_n343 Cl1-    0.261300    0.762900    0.684678    2.000000 Uiso  1.0000
 Li3_A2_n343 Li+    0.000000    0.500000    0.685000    2.000000 Uiso  0.2700
 Sc1_A2_n344 Sc3+    0.500000    0.000000    0.687000    2.000000 Uiso  1.0000
 Cl1_A2_n344 Cl1-    0.742100    0.768700    0.687000    2.000000 Uiso  1.0000
 Cl2_A2_n344 Cl1-    0.257900    0.231300    0.687000    2.000000 Uiso  1.0000
 Cl3_A2_n344 Cl1-    0.738700    0.237100    0.687322    2.000000 Uiso  1.0000
 Cl4_A2_n344 Cl1-    0.261300    0.762900    0.687322    2.000000 Uiso  1.0000
 Cl5_A2_n344 Cl1-    0.738700    0.237100    0.686678    2.000000 Uiso  1.0000
 Cl6_A2_n344 Cl1-    0.261300    0.762900    0.686678    2.000000 Uiso  1.0000
 Li3_A2_n344 Li+    0.000000    0.500000    0.687000    2.000000 Uiso  0.2700
 Sc1_A2_n345 Sc3+    0.500000    0.000000    0.689000    2.000000 Uiso  1.0000
 Cl1_A2_n345 Cl1-    0.742100    0.768700    0.689000    2.000000 Uiso  1.0000
 Cl2_A2_n345 Cl1-    0.257900    0.231300    0.689000    2.000000 Uiso  1.0000
 Cl3_A2_n345 Cl1-    0.738700    0.237100    0.689322    2.000000 Uiso  1.0000
 Cl4_A2_n345 Cl1-    0.261300    0.762900    0.689322    2.000000 Uiso  1.0000
 Cl5_A2_n345 Cl1-    0.738700    0.237100    0.688678    2.000000 Uiso  1.0000
 Cl6_A2_n345 Cl1-    0.261300    0.762900    0.688678    2.000000 Uiso  1.0000
 Li3_A2_n345 Li+    0.000000    0.500000    0.689000    2.000000 Uiso  0.2700
 Sc1_A2_n346 Sc3+    0.500000    0.000000    0.691000    2.000000 Uiso  1.0000
 Cl1_A2_n346 Cl1-    0.742100    0.768700    0.691000    2.000000 Uiso  1.0000
 Cl2_A2_n346 Cl1-    0.257900    0.231300    0.691000    2.000000 Uiso  1.0000
 Cl3_A2_n346 Cl1-    0.738700    0.237100    0.691322    2.000000 Uiso  1.0000
 Cl4_A2_n346 Cl1-    0.261300    0.762900    0.691322    2.000000 Uiso  1.0000
 Cl5_A2_n346 Cl1-    0.738700    0.237100    0.690678    2.000000 Uiso  1.0000
 Cl6_A2_n346 Cl1-    0.261300    0.762900    0.690678    2.000000 Uiso  1.0000
 Li3_A2_n346 Li+    0.000000    0.500000    0.691000    2.000000 Uiso  0.2700
 Sc1_A2_n347 Sc3+    0.500000    0.000000    0.693000    2.000000 Uiso  1.0000
 Cl1_A2_n347 Cl1-    0.742100    0.768700    0.693000    2.000000 Uiso  1.0000
 Cl2_A2_n347 Cl1-    0.257900    0.231300    0.693000    2.000000 Uiso  1.0000
 Cl3_A2_n347 Cl1-    0.738700    0.237100    0.693322    2.000000 Uiso  1.0000
 Cl4_A2_n347 Cl1-    0.261300    0.762900    0.693322    2.000000 Uiso  1.0000
 Cl5_A2_n347 Cl1-    0.738700    0.237100    0.692678    2.000000 Uiso  1.0000
 Cl6_A2_n347 Cl1-    0.261300    0.762900    0.692678    2.000000 Uiso  1.0000
 Li3_A2_n347 Li+    0.000000    0.500000    0.693000    2.000000 Uiso  0.2700
 Sc1_A2_n348 Sc3+    0.500000    0.000000    0.695000    2.000000 Uiso  1.0000
 Cl1_A2_n348 Cl1-    0.742100    0.768700    0.695000    2.000000 Uiso  1.0000
 Cl2_A2_n348 Cl1-    0.257900    0.231300    0.695000    2.000000 Uiso  1.0000
 Cl3_A2_n348 Cl1-    0.738700    0.237100    0.695322    2.000000 Uiso  1.0000
 Cl4_A2_n348 Cl1-    0.261300    0.762900    0.695322    2.000000 Uiso  1.0000
 Cl5_A2_n348 Cl1-    0.738700    0.237100    0.694678    2.000000 Uiso  1.0000
 Cl6_A2_n348 Cl1-    0.261300    0.762900    0.694678    2.000000 Uiso  1.0000
 Li3_A2_n348 Li+    0.000000    0.500000    0.695000    2.000000 Uiso  0.2700
 Sc1_A2_n349 Sc3+    0.500000    0.000000    0.697000    2.000000 Uiso  1.0000
 Cl1_A2_n349 Cl1-    0.742100    0.768700    0.697000    2.000000 Uiso  1.0000
 Cl2_A2_n349 Cl1-    0.257900    0.231300    0.697000    2.000000 Uiso  1.0000
 Cl3_A2_n349 Cl1-    0.738700    0.237100    0.697322    2.000000 Uiso  1.0000
 Cl4_A2_n349 Cl1-    0.261300    0.762900    0.697322    2.000000 Uiso  1.0000
 Cl5_A2_n349 Cl1-    0.738700    0.237100    0.696678    2.000000 Uiso  1.0000
 Cl6_A2_n349 Cl1-    0.261300    0.762900    0.696678    2.000000 Uiso  1.0000
 Li3_A2_n349 Li+    0.000000    0.500000    0.697000    2.000000 Uiso  0.2700
 Sc1_A2_n350 Sc3+    0.500000    0.000000    0.699000    2.000000 Uiso  1.0000
 Cl1_A2_n350 Cl1-    0.742100    0.768700    0.699000    2.000000 Uiso  1.0000
 Cl2_A2_n350 Cl1-    0.257900    0.231300    0.699000    2.000000 Uiso  1.0000
 Cl3_A2_n350 Cl1-    0.738700    0.237100    0.699322    2.000000 Uiso  1.0000
 Cl4_A2_n350 Cl1-    0.261300    0.762900    0.699322    2.000000 Uiso  1.0000
 Cl5_A2_n350 Cl1-    0.738700    0.237100    0.698678    2.000000 Uiso  1.0000
 Cl6_A2_n350 Cl1-    0.261300    0.762900    0.698678    2.000000 Uiso  1.0000
 Li3_A2_n350 Li+    0.000000    0.500000    0.699000    2.000000 Uiso  0.2700
 Sc1_A2_n351 Sc3+    0.500000    0.000000    0.701000    2.000000 Uiso  1.0000
 Cl1_A2_n351 Cl1-    0.742100    0.768700    0.701000    2.000000 Uiso  1.0000
 Cl2_A2_n351 Cl1-    0.257900    0.231300    0.701000    2.000000 Uiso  1.0000
 Cl3_A2_n351 Cl1-    0.738700    0.237100    0.701322    2.000000 Uiso  1.0000
 Cl4_A2_n351 Cl1-    0.261300    0.762900    0.701322    2.000000 Uiso  1.0000
 Cl5_A2_n351 Cl1-    0.738700    0.237100    0.700678    2.000000 Uiso  1.0000
 Cl6_A2_n351 Cl1-    0.261300    0.762900    0.700678    2.000000 Uiso  1.0000
 Li3_A2_n351 Li+    0.000000    0.500000    0.701000    2.000000 Uiso  0.2700
 Sc1_A2_n352 Sc3+    0.500000    0.000000    0.703000    2.000000 Uiso  1.0000
 Cl1_A2_n352 Cl1-    0.742100    0.768700    0.703000    2.000000 Uiso  1.0000
 Cl2_A2_n352 Cl1-    0.257900    0.231300    0.703000    2.000000 Uiso  1.0000
 Cl3_A2_n352 Cl1-    0.738700    0.237100    0.703322    2.000000 Uiso  1.0000
 Cl4_A2_n352 Cl1-    0.261300    0.762900    0.703322    2.000000 Uiso  1.0000
 Cl5_A2_n352 Cl1-    0.738700    0.237100    0.702678    2.000000 Uiso  1.0000
 Cl6_A2_n352 Cl1-    0.261300    0.762900    0.702678    2.000000 Uiso  1.0000
 Li3_A2_n352 Li+    0.000000    0.500000    0.703000    2.000000 Uiso  0.2700
 Sc1_A2_n353 Sc3+    0.500000    0.000000    0.705000    2.000000 Uiso  1.0000
 Cl1_A2_n353 Cl1-    0.742100    0.768700    0.705000    2.000000 Uiso  1.0000
 Cl2_A2_n353 Cl1-    0.257900    0.231300    0.705000    2.000000 Uiso  1.0000
 Cl3_A2_n353 Cl1-    0.738700    0.237100    0.705322    2.000000 Uiso  1.0000
 Cl4_A2_n353 Cl1-    0.261300    0.762900    0.705322    2.000000 Uiso  1.0000
 Cl5_A2_n353 Cl1-    0.738700    0.237100    0.704678    2.000000 Uiso  1.0000
 Cl6_A2_n353 Cl1-    0.261300    0.762900    0.704678    2.000000 Uiso  1.0000
 Li3_A2_n353 Li+    0.000000    0.500000    0.705000    2.000000 Uiso  0.2700
 Sc1_A2_n354 Sc3+    0.500000    0.000000    0.707000    2.000000 Uiso  1.0000
 Cl1_A2_n354 Cl1-    0.742100    0.768700    0.707000    2.000000 Uiso  1.0000
 Cl2_A2_n354 Cl1-    0.257900    0.231300    0.707000    2.000000 Uiso  1.0000
 Cl3_A2_n354 Cl1-    0.738700    0.237100    0.707322    2.000000 Uiso  1.0000
 Cl4_A2_n354 Cl1-    0.261300    0.762900    0.707322    2.000000 Uiso  1.0000
 Cl5_A2_n354 Cl1-    0.738700    0.237100    0.706678    2.000000 Uiso  1.0000
 Cl6_A2_n354 Cl1-    0.261300    0.762900    0.706678    2.000000 Uiso  1.0000
 Li3_A2_n354 Li+    0.000000    0.500000    0.707000    2.000000 Uiso  0.2700
 Sc1_A2_n355 Sc3+    0.500000    0.000000    0.709000    2.000000 Uiso  1.0000
 Cl1_A2_n355 Cl1-    0.742100    0.768700    0.709000    2.000000 Uiso  1.0000
 Cl2_A2_n355 Cl1-    0.257900    0.231300    0.709000    2.000000 Uiso  1.0000
 Cl3_A2_n355 Cl1-    0.738700    0.237100    0.709322    2.000000 Uiso  1.0000
 Cl4_A2_n355 Cl1-    0.261300    0.762900    0.709322    2.000000 Uiso  1.0000
 Cl5_A2_n355 Cl1-    0.738700    0.237100    0.708678    2.000000 Uiso  1.0000
 Cl6_A2_n355 Cl1-    0.261300    0.762900    0.708678    2.000000 Uiso  1.0000
 Li3_A2_n355 Li+    0.000000    0.500000    0.709000    2.000000 Uiso  0.2700
 Sc1_A2_n356 Sc3+    0.500000    0.000000    0.711000    2.000000 Uiso  1.0000
 Cl1_A2_n356 Cl1-    0.742100    0.768700    0.711000    2.000000 Uiso  1.0000
 Cl2_A2_n356 Cl1-    0.257900    0.231300    0.711000    2.000000 Uiso  1.0000
 Cl3_A2_n356 Cl1-    0.738700    0.237100    0.711322    2.000000 Uiso  1.0000
 Cl4_A2_n356 Cl1-    0.261300    0.762900    0.711322    2.000000 Uiso  1.0000
 Cl5_A2_n356 Cl1-    0.738700    0.237100    0.710678    2.000000 Uiso  1.0000
 Cl6_A2_n356 Cl1-    0.261300    0.762900    0.710678    2.000000 Uiso  1.0000
 Li3_A2_n356 Li+    0.000000    0.500000    0.711000    2.000000 Uiso  0.2700
 Sc1_A2_n357 Sc3+    0.500000    0.000000    0.713000    2.000000 Uiso  1.0000
 Cl1_A2_n357 Cl1-    0.742100    0.768700    0.713000    2.000000 Uiso  1.0000
 Cl2_A2_n357 Cl1-    0.257900    0.231300    0.713000    2.000000 Uiso  1.0000
 Cl3_A2_n357 Cl1-    0.738700    0.237100    0.713322    2.000000 Uiso  1.0000
 Cl4_A2_n357 Cl1-    0.261300    0.762900    0.713322    2.000000 Uiso  1.0000
 Cl5_A2_n357 Cl1-    0.738700    0.237100    0.712678    2.000000 Uiso  1.0000
 Cl6_A2_n357 Cl1-    0.261300    0.762900    0.712678    2.000000 Uiso  1.0000
 Li3_A2_n357 Li+    0.000000    0.500000    0.713000    2.000000 Uiso  0.2700
 Sc1_A2_n358 Sc3+    0.500000    0.000000    0.715000    2.000000 Uiso  1.0000
 Cl1_A2_n358 Cl1-    0.742100    0.768700    0.715000    2.000000 Uiso  1.0000
 Cl2_A2_n358 Cl1-    0.257900    0.231300    0.715000    2.000000 Uiso  1.0000
 Cl3_A2_n358 Cl1-    0.738700    0.237100    0.715322    2.000000 Uiso  1.0000
 Cl4_A2_n358 Cl1-    0.261300    0.762900    0.715322    2.000000 Uiso  1.0000
 Cl5_A2_n358 Cl1-    0.738700    0.237100    0.714678    2.000000 Uiso  1.0000
 Cl6_A2_n358 Cl1-    0.261300    0.762900    0.714678    2.000000 Uiso  1.0000
 Li3_A2_n358 Li+    0.000000    0.500000    0.715000    2.000000 Uiso  0.2700
 Sc1_A2_n359_fault Sc3+    0.500000    0.333330    0.717000    2.000000 Uiso  1.0000
 Cl1_A2_n359_fault Cl1-    0.742100    1.102030    0.717000    2.000000 Uiso  1.0000
 Cl2_A2_n359_fault Cl1-    0.257900    0.564630    0.717000    2.000000 Uiso  1.0000
 Cl3_A2_n359_fault Cl1-    0.738700    0.570430    0.717322    2.000000 Uiso  1.0000
 Cl4_A2_n359_fault Cl1-    0.261300    1.096230    0.717322    2.000000 Uiso  1.0000
 Cl5_A2_n359_fault Cl1-    0.738700    0.570430    0.716678    2.000000 Uiso  1.0000
 Cl6_A2_n359_fault Cl1-    0.261300    1.096230    0.716678    2.000000 Uiso  1.0000
 Li3_A2_n359_fault Li+    0.000000    0.833330    0.717000    2.000000 Uiso  0.2700
 Sc1_A2_n360 Sc3+    0.500000    0.000000    0.719000    2.000000 Uiso  1.0000
 Cl1_A2_n360 Cl1-    0.742100    0.768700    0.719000    2.000000 Uiso  1.0000
 Cl2_A2_n360 Cl1-    0.257900    0.231300    0.719000    2.000000 Uiso  1.0000
 Cl3_A2_n360 Cl1-    0.738700    0.237100    0.719322    2.000000 Uiso  1.0000
 Cl4_A2_n360 Cl1-    0.261300    0.762900    0.719322    2.000000 Uiso  1.0000
 Cl5_A2_n360 Cl1-    0.738700    0.237100    0.718678    2.000000 Uiso  1.0000
 Cl6_A2_n360 Cl1-    0.261300    0.762900    0.718678    2.000000 Uiso  1.0000
 Li3_A2_n360 Li+    0.000000    0.500000    0.719000    2.000000 Uiso  0.2700
 Sc1_A2_n361 Sc3+    0.500000    0.000000    0.721000    2.000000 Uiso  1.0000
 Cl1_A2_n361 Cl1-    0.742100    0.768700    0.721000    2.000000 Uiso  1.0000
 Cl2_A2_n361 Cl1-    0.257900    0.231300    0.721000    2.000000 Uiso  1.0000
 Cl3_A2_n361 Cl1-    0.738700    0.237100    0.721322    2.000000 Uiso  1.0000
 Cl4_A2_n361 Cl1-    0.261300    0.762900    0.721322    2.000000 Uiso  1.0000
 Cl5_A2_n361 Cl1-    0.738700    0.237100    0.720678    2.000000 Uiso  1.0000
 Cl6_A2_n361 Cl1-    0.261300    0.762900    0.720678    2.000000 Uiso  1.0000
 Li3_A2_n361 Li+    0.000000    0.500000    0.721000    2.000000 Uiso  0.2700
 Sc1_A2_n362 Sc3+    0.500000    0.000000    0.723000    2.000000 Uiso  1.0000
 Cl1_A2_n362 Cl1-    0.742100    0.768700    0.723000    2.000000 Uiso  1.0000
 Cl2_A2_n362 Cl1-    0.257900    0.231300    0.723000    2.000000 Uiso  1.0000
 Cl3_A2_n362 Cl1-    0.738700    0.237100    0.723322    2.000000 Uiso  1.0000
 Cl4_A2_n362 Cl1-    0.261300    0.762900    0.723322    2.000000 Uiso  1.0000
 Cl5_A2_n362 Cl1-    0.738700    0.237100    0.722678    2.000000 Uiso  1.0000
 Cl6_A2_n362 Cl1-    0.261300    0.762900    0.722678    2.000000 Uiso  1.0000
 Li3_A2_n362 Li+    0.000000    0.500000    0.723000    2.000000 Uiso  0.2700
 Sc1_A2_n363 Sc3+    0.500000    0.000000    0.725000    2.000000 Uiso  1.0000
 Cl1_A2_n363 Cl1-    0.742100    0.768700    0.725000    2.000000 Uiso  1.0000
 Cl2_A2_n363 Cl1-    0.257900    0.231300    0.725000    2.000000 Uiso  1.0000
 Cl3_A2_n363 Cl1-    0.738700    0.237100    0.725322    2.000000 Uiso  1.0000
 Cl4_A2_n363 Cl1-    0.261300    0.762900    0.725322    2.000000 Uiso  1.0000
 Cl5_A2_n363 Cl1-    0.738700    0.237100    0.724678    2.000000 Uiso  1.0000
 Cl6_A2_n363 Cl1-    0.261300    0.762900    0.724678    2.000000 Uiso  1.0000
 Li3_A2_n363 Li+    0.000000    0.500000    0.725000    2.000000 Uiso  0.2700
 Sc1_A2_n364 Sc3+    0.500000    0.000000    0.727000    2.000000 Uiso  1.0000
 Cl1_A2_n364 Cl1-    0.742100    0.768700    0.727000    2.000000 Uiso  1.0000
 Cl2_A2_n364 Cl1-    0.257900    0.231300    0.727000    2.000000 Uiso  1.0000
 Cl3_A2_n364 Cl1-    0.738700    0.237100    0.727322    2.000000 Uiso  1.0000
 Cl4_A2_n364 Cl1-    0.261300    0.762900    0.727322    2.000000 Uiso  1.0000
 Cl5_A2_n364 Cl1-    0.738700    0.237100    0.726678    2.000000 Uiso  1.0000
 Cl6_A2_n364 Cl1-    0.261300    0.762900    0.726678    2.000000 Uiso  1.0000
 Li3_A2_n364 Li+    0.000000    0.500000    0.727000    2.000000 Uiso  0.2700
 Sc1_A2_n365 Sc3+    0.500000    0.000000    0.729000    2.000000 Uiso  1.0000
 Cl1_A2_n365 Cl1-    0.742100    0.768700    0.729000    2.000000 Uiso  1.0000
 Cl2_A2_n365 Cl1-    0.257900    0.231300    0.729000    2.000000 Uiso  1.0000
 Cl3_A2_n365 Cl1-    0.738700    0.237100    0.729322    2.000000 Uiso  1.0000
 Cl4_A2_n365 Cl1-    0.261300    0.762900    0.729322    2.000000 Uiso  1.0000
 Cl5_A2_n365 Cl1-    0.738700    0.237100    0.728678    2.000000 Uiso  1.0000
 Cl6_A2_n365 Cl1-    0.261300    0.762900    0.728678    2.000000 Uiso  1.0000
 Li3_A2_n365 Li+    0.000000    0.500000    0.729000    2.000000 Uiso  0.2700
 Sc1_A2_n366 Sc3+    0.500000    0.000000    0.731000    2.000000 Uiso  1.0000
 Cl1_A2_n366 Cl1-    0.742100    0.768700    0.731000    2.000000 Uiso  1.0000
 Cl2_A2_n366 Cl1-    0.257900    0.231300    0.731000    2.000000 Uiso  1.0000
 Cl3_A2_n366 Cl1-    0.738700    0.237100    0.731322    2.000000 Uiso  1.0000
 Cl4_A2_n366 Cl1-    0.261300    0.762900    0.731322    2.000000 Uiso  1.0000
 Cl5_A2_n366 Cl1-    0.738700    0.237100    0.730678    2.000000 Uiso  1.0000
 Cl6_A2_n366 Cl1-    0.261300    0.762900    0.730678    2.000000 Uiso  1.0000
 Li3_A2_n366 Li+    0.000000    0.500000    0.731000    2.000000 Uiso  0.2700
 Sc1_A2_n367_fault Sc3+    0.500000    0.333330    0.733000    2.000000 Uiso  1.0000
 Cl1_A2_n367_fault Cl1-    0.742100    1.102030    0.733000    2.000000 Uiso  1.0000
 Cl2_A2_n367_fault Cl1-    0.257900    0.564630    0.733000    2.000000 Uiso  1.0000
 Cl3_A2_n367_fault Cl1-    0.738700    0.570430    0.733322    2.000000 Uiso  1.0000
 Cl4_A2_n367_fault Cl1-    0.261300    1.096230    0.733322    2.000000 Uiso  1.0000
 Cl5_A2_n367_fault Cl1-    0.738700    0.570430    0.732678    2.000000 Uiso  1.0000
 Cl6_A2_n367_fault Cl1-    0.261300    1.096230    0.732678    2.000000 Uiso  1.0000
 Li3_A2_n367_fault Li+    0.000000    0.833330    0.733000    2.000000 Uiso  0.2700
 Sc1_A2_n368 Sc3+    0.500000    0.000000    0.735000    2.000000 Uiso  1.0000
 Cl1_A2_n368 Cl1-    0.742100    0.768700    0.735000    2.000000 Uiso  1.0000
 Cl2_A2_n368 Cl1-    0.257900    0.231300    0.735000    2.000000 Uiso  1.0000
 Cl3_A2_n368 Cl1-    0.738700    0.237100    0.735322    2.000000 Uiso  1.0000
 Cl4_A2_n368 Cl1-    0.261300    0.762900    0.735322    2.000000 Uiso  1.0000
 Cl5_A2_n368 Cl1-    0.738700    0.237100    0.734678    2.000000 Uiso  1.0000
 Cl6_A2_n368 Cl1-    0.261300    0.762900    0.734678    2.000000 Uiso  1.0000
 Li3_A2_n368 Li+    0.000000    0.500000    0.735000    2.000000 Uiso  0.2700
 Sc1_A2_n369 Sc3+    0.500000    0.000000    0.737000    2.000000 Uiso  1.0000
 Cl1_A2_n369 Cl1-    0.742100    0.768700    0.737000    2.000000 Uiso  1.0000
 Cl2_A2_n369 Cl1-    0.257900    0.231300    0.737000    2.000000 Uiso  1.0000
 Cl3_A2_n369 Cl1-    0.738700    0.237100    0.737322    2.000000 Uiso  1.0000
 Cl4_A2_n369 Cl1-    0.261300    0.762900    0.737322    2.000000 Uiso  1.0000
 Cl5_A2_n369 Cl1-    0.738700    0.237100    0.736678    2.000000 Uiso  1.0000
 Cl6_A2_n369 Cl1-    0.261300    0.762900    0.736678    2.000000 Uiso  1.0000
 Li3_A2_n369 Li+    0.000000    0.500000    0.737000    2.000000 Uiso  0.2700
 Sc1_A2_n370 Sc3+    0.500000    0.000000    0.739000    2.000000 Uiso  1.0000
 Cl1_A2_n370 Cl1-    0.742100    0.768700    0.739000    2.000000 Uiso  1.0000
 Cl2_A2_n370 Cl1-    0.257900    0.231300    0.739000    2.000000 Uiso  1.0000
 Cl3_A2_n370 Cl1-    0.738700    0.237100    0.739322    2.000000 Uiso  1.0000
 Cl4_A2_n370 Cl1-    0.261300    0.762900    0.739322    2.000000 Uiso  1.0000
 Cl5_A2_n370 Cl1-    0.738700    0.237100    0.738678    2.000000 Uiso  1.0000
 Cl6_A2_n370 Cl1-    0.261300    0.762900    0.738678    2.000000 Uiso  1.0000
 Li3_A2_n370 Li+    0.000000    0.500000    0.739000    2.000000 Uiso  0.2700
 Sc1_A2_n371 Sc3+    0.500000    0.000000    0.741000    2.000000 Uiso  1.0000
 Cl1_A2_n371 Cl1-    0.742100    0.768700    0.741000    2.000000 Uiso  1.0000
 Cl2_A2_n371 Cl1-    0.257900    0.231300    0.741000    2.000000 Uiso  1.0000
 Cl3_A2_n371 Cl1-    0.738700    0.237100    0.741322    2.000000 Uiso  1.0000
 Cl4_A2_n371 Cl1-    0.261300    0.762900    0.741322    2.000000 Uiso  1.0000
 Cl5_A2_n371 Cl1-    0.738700    0.237100    0.740678    2.000000 Uiso  1.0000
 Cl6_A2_n371 Cl1-    0.261300    0.762900    0.740678    2.000000 Uiso  1.0000
 Li3_A2_n371 Li+    0.000000    0.500000    0.741000    2.000000 Uiso  0.2700
 Sc1_A2_n372_fault Sc3+    0.500000    0.333330    0.743000    2.000000 Uiso  1.0000
 Cl1_A2_n372_fault Cl1-    0.742100    1.102030    0.743000    2.000000 Uiso  1.0000
 Cl2_A2_n372_fault Cl1-    0.257900    0.564630    0.743000    2.000000 Uiso  1.0000
 Cl3_A2_n372_fault Cl1-    0.738700    0.570430    0.743322    2.000000 Uiso  1.0000
 Cl4_A2_n372_fault Cl1-    0.261300    1.096230    0.743322    2.000000 Uiso  1.0000
 Cl5_A2_n372_fault Cl1-    0.738700    0.570430    0.742678    2.000000 Uiso  1.0000
 Cl6_A2_n372_fault Cl1-    0.261300    1.096230    0.742678    2.000000 Uiso  1.0000
 Li3_A2_n372_fault Li+    0.000000    0.833330    0.743000    2.000000 Uiso  0.2700
 Sc1_A2_n373 Sc3+    0.500000    0.000000    0.745000    2.000000 Uiso  1.0000
 Cl1_A2_n373 Cl1-    0.742100    0.768700    0.745000    2.000000 Uiso  1.0000
 Cl2_A2_n373 Cl1-    0.257900    0.231300    0.745000    2.000000 Uiso  1.0000
 Cl3_A2_n373 Cl1-    0.738700    0.237100    0.745322    2.000000 Uiso  1.0000
 Cl4_A2_n373 Cl1-    0.261300    0.762900    0.745322    2.000000 Uiso  1.0000
 Cl5_A2_n373 Cl1-    0.738700    0.237100    0.744678    2.000000 Uiso  1.0000
 Cl6_A2_n373 Cl1-    0.261300    0.762900    0.744678    2.000000 Uiso  1.0000
 Li3_A2_n373 Li+    0.000000    0.500000    0.745000    2.000000 Uiso  0.2700
 Sc1_A2_n374 Sc3+    0.500000    0.000000    0.747000    2.000000 Uiso  1.0000
 Cl1_A2_n374 Cl1-    0.742100    0.768700    0.747000    2.000000 Uiso  1.0000
 Cl2_A2_n374 Cl1-    0.257900    0.231300    0.747000    2.000000 Uiso  1.0000
 Cl3_A2_n374 Cl1-    0.738700    0.237100    0.747322    2.000000 Uiso  1.0000
 Cl4_A2_n374 Cl1-    0.261300    0.762900    0.747322    2.000000 Uiso  1.0000
 Cl5_A2_n374 Cl1-    0.738700    0.237100    0.746678    2.000000 Uiso  1.0000
 Cl6_A2_n374 Cl1-    0.261300    0.762900    0.746678    2.000000 Uiso  1.0000
 Li3_A2_n374 Li+    0.000000    0.500000    0.747000    2.000000 Uiso  0.2700
 Sc1_A2_n375 Sc3+    0.500000    0.000000    0.749000    2.000000 Uiso  1.0000
 Cl1_A2_n375 Cl1-    0.742100    0.768700    0.749000    2.000000 Uiso  1.0000
 Cl2_A2_n375 Cl1-    0.257900    0.231300    0.749000    2.000000 Uiso  1.0000
 Cl3_A2_n375 Cl1-    0.738700    0.237100    0.749322    2.000000 Uiso  1.0000
 Cl4_A2_n375 Cl1-    0.261300    0.762900    0.749322    2.000000 Uiso  1.0000
 Cl5_A2_n375 Cl1-    0.738700    0.237100    0.748678    2.000000 Uiso  1.0000
 Cl6_A2_n375 Cl1-    0.261300    0.762900    0.748678    2.000000 Uiso  1.0000
 Li3_A2_n375 Li+    0.000000    0.500000    0.749000    2.000000 Uiso  0.2700
 Sc1_A2_n376 Sc3+    0.500000    0.000000    0.751000    2.000000 Uiso  1.0000
 Cl1_A2_n376 Cl1-    0.742100    0.768700    0.751000    2.000000 Uiso  1.0000
 Cl2_A2_n376 Cl1-    0.257900    0.231300    0.751000    2.000000 Uiso  1.0000
 Cl3_A2_n376 Cl1-    0.738700    0.237100    0.751322    2.000000 Uiso  1.0000
 Cl4_A2_n376 Cl1-    0.261300    0.762900    0.751322    2.000000 Uiso  1.0000
 Cl5_A2_n376 Cl1-    0.738700    0.237100    0.750678    2.000000 Uiso  1.0000
 Cl6_A2_n376 Cl1-    0.261300    0.762900    0.750678    2.000000 Uiso  1.0000
 Li3_A2_n376 Li+    0.000000    0.500000    0.751000    2.000000 Uiso  0.2700
 Sc1_A2_n377 Sc3+    0.500000    0.000000    0.753000    2.000000 Uiso  1.0000
 Cl1_A2_n377 Cl1-    0.742100    0.768700    0.753000    2.000000 Uiso  1.0000
 Cl2_A2_n377 Cl1-    0.257900    0.231300    0.753000    2.000000 Uiso  1.0000
 Cl3_A2_n377 Cl1-    0.738700    0.237100    0.753322    2.000000 Uiso  1.0000
 Cl4_A2_n377 Cl1-    0.261300    0.762900    0.753322    2.000000 Uiso  1.0000
 Cl5_A2_n377 Cl1-    0.738700    0.237100    0.752678    2.000000 Uiso  1.0000
 Cl6_A2_n377 Cl1-    0.261300    0.762900    0.752678    2.000000 Uiso  1.0000
 Li3_A2_n377 Li+    0.000000    0.500000    0.753000    2.000000 Uiso  0.2700
 Sc1_A2_n378 Sc3+    0.500000    0.000000    0.755000    2.000000 Uiso  1.0000
 Cl1_A2_n378 Cl1-    0.742100    0.768700    0.755000    2.000000 Uiso  1.0000
 Cl2_A2_n378 Cl1-    0.257900    0.231300    0.755000    2.000000 Uiso  1.0000
 Cl3_A2_n378 Cl1-    0.738700    0.237100    0.755322    2.000000 Uiso  1.0000
 Cl4_A2_n378 Cl1-    0.261300    0.762900    0.755322    2.000000 Uiso  1.0000
 Cl5_A2_n378 Cl1-    0.738700    0.237100    0.754678    2.000000 Uiso  1.0000
 Cl6_A2_n378 Cl1-    0.261300    0.762900    0.754678    2.000000 Uiso  1.0000
 Li3_A2_n378 Li+    0.000000    0.500000    0.755000    2.000000 Uiso  0.2700
 Sc1_A2_n379_fault Sc3+    0.500000    0.333330    0.757000    2.000000 Uiso  1.0000
 Cl1_A2_n379_fault Cl1-    0.742100    1.102030    0.757000    2.000000 Uiso  1.0000
 Cl2_A2_n379_fault Cl1-    0.257900    0.564630    0.757000    2.000000 Uiso  1.0000
 Cl3_A2_n379_fault Cl1-    0.738700    0.570430    0.757322    2.000000 Uiso  1.0000
 Cl4_A2_n379_fault Cl1-    0.261300    1.096230    0.757322    2.000000 Uiso  1.0000
 Cl5_A2_n379_fault Cl1-    0.738700    0.570430    0.756678    2.000000 Uiso  1.0000
 Cl6_A2_n379_fault Cl1-    0.261300    1.096230    0.756678    2.000000 Uiso  1.0000
 Li3_A2_n379_fault Li+    0.000000    0.833330    0.757000    2.000000 Uiso  0.2700
 Sc1_A2_n380 Sc3+    0.500000    0.000000    0.759000    2.000000 Uiso  1.0000
 Cl1_A2_n380 Cl1-    0.742100    0.768700    0.759000    2.000000 Uiso  1.0000
 Cl2_A2_n380 Cl1-    0.257900    0.231300    0.759000    2.000000 Uiso  1.0000
 Cl3_A2_n380 Cl1-    0.738700    0.237100    0.759322    2.000000 Uiso  1.0000
 Cl4_A2_n380 Cl1-    0.261300    0.762900    0.759322    2.000000 Uiso  1.0000
 Cl5_A2_n380 Cl1-    0.738700    0.237100    0.758678    2.000000 Uiso  1.0000
 Cl6_A2_n380 Cl1-    0.261300    0.762900    0.758678    2.000000 Uiso  1.0000
 Li3_A2_n380 Li+    0.000000    0.500000    0.759000    2.000000 Uiso  0.2700
 Sc1_A2_n381 Sc3+    0.500000    0.000000    0.761000    2.000000 Uiso  1.0000
 Cl1_A2_n381 Cl1-    0.742100    0.768700    0.761000    2.000000 Uiso  1.0000
 Cl2_A2_n381 Cl1-    0.257900    0.231300    0.761000    2.000000 Uiso  1.0000
 Cl3_A2_n381 Cl1-    0.738700    0.237100    0.761322    2.000000 Uiso  1.0000
 Cl4_A2_n381 Cl1-    0.261300    0.762900    0.761322    2.000000 Uiso  1.0000
 Cl5_A2_n381 Cl1-    0.738700    0.237100    0.760678    2.000000 Uiso  1.0000
 Cl6_A2_n381 Cl1-    0.261300    0.762900    0.760678    2.000000 Uiso  1.0000
 Li3_A2_n381 Li+    0.000000    0.500000    0.761000    2.000000 Uiso  0.2700
 Sc1_A2_n382 Sc3+    0.500000    0.000000    0.763000    2.000000 Uiso  1.0000
 Cl1_A2_n382 Cl1-    0.742100    0.768700    0.763000    2.000000 Uiso  1.0000
 Cl2_A2_n382 Cl1-    0.257900    0.231300    0.763000    2.000000 Uiso  1.0000
 Cl3_A2_n382 Cl1-    0.738700    0.237100    0.763322    2.000000 Uiso  1.0000
 Cl4_A2_n382 Cl1-    0.261300    0.762900    0.763322    2.000000 Uiso  1.0000
 Cl5_A2_n382 Cl1-    0.738700    0.237100    0.762678    2.000000 Uiso  1.0000
 Cl6_A2_n382 Cl1-    0.261300    0.762900    0.762678    2.000000 Uiso  1.0000
 Li3_A2_n382 Li+    0.000000    0.500000    0.763000    2.000000 Uiso  0.2700
 Sc1_A2_n383 Sc3+    0.500000    0.000000    0.765000    2.000000 Uiso  1.0000
 Cl1_A2_n383 Cl1-    0.742100    0.768700    0.765000    2.000000 Uiso  1.0000
 Cl2_A2_n383 Cl1-    0.257900    0.231300    0.765000    2.000000 Uiso  1.0000
 Cl3_A2_n383 Cl1-    0.738700    0.237100    0.765322    2.000000 Uiso  1.0000
 Cl4_A2_n383 Cl1-    0.261300    0.762900    0.765322    2.000000 Uiso  1.0000
 Cl5_A2_n383 Cl1-    0.738700    0.237100    0.764678    2.000000 Uiso  1.0000
 Cl6_A2_n383 Cl1-    0.261300    0.762900    0.764678    2.000000 Uiso  1.0000
 Li3_A2_n383 Li+    0.000000    0.500000    0.765000    2.000000 Uiso  0.2700
 Sc1_A2_n384 Sc3+    0.500000    0.000000    0.767000    2.000000 Uiso  1.0000
 Cl1_A2_n384 Cl1-    0.742100    0.768700    0.767000    2.000000 Uiso  1.0000
 Cl2_A2_n384 Cl1-    0.257900    0.231300    0.767000    2.000000 Uiso  1.0000
 Cl3_A2_n384 Cl1-    0.738700    0.237100    0.767322    2.000000 Uiso  1.0000
 Cl4_A2_n384 Cl1-    0.261300    0.762900    0.767322    2.000000 Uiso  1.0000
 Cl5_A2_n384 Cl1-    0.738700    0.237100    0.766678    2.000000 Uiso  1.0000
 Cl6_A2_n384 Cl1-    0.261300    0.762900    0.766678    2.000000 Uiso  1.0000
 Li3_A2_n384 Li+    0.000000    0.500000    0.767000    2.000000 Uiso  0.2700
 Sc1_A2_n385 Sc3+    0.500000    0.000000    0.769000    2.000000 Uiso  1.0000
 Cl1_A2_n385 Cl1-    0.742100    0.768700    0.769000    2.000000 Uiso  1.0000
 Cl2_A2_n385 Cl1-    0.257900    0.231300    0.769000    2.000000 Uiso  1.0000
 Cl3_A2_n385 Cl1-    0.738700    0.237100    0.769322    2.000000 Uiso  1.0000
 Cl4_A2_n385 Cl1-    0.261300    0.762900    0.769322    2.000000 Uiso  1.0000
 Cl5_A2_n385 Cl1-    0.738700    0.237100    0.768678    2.000000 Uiso  1.0000
 Cl6_A2_n385 Cl1-    0.261300    0.762900    0.768678    2.000000 Uiso  1.0000
 Li3_A2_n385 Li+    0.000000    0.500000    0.769000    2.000000 Uiso  0.2700
 Sc1_A2_n386 Sc3+    0.500000    0.000000    0.771000    2.000000 Uiso  1.0000
 Cl1_A2_n386 Cl1-    0.742100    0.768700    0.771000    2.000000 Uiso  1.0000
 Cl2_A2_n386 Cl1-    0.257900    0.231300    0.771000    2.000000 Uiso  1.0000
 Cl3_A2_n386 Cl1-    0.738700    0.237100    0.771322    2.000000 Uiso  1.0000
 Cl4_A2_n386 Cl1-    0.261300    0.762900    0.771322    2.000000 Uiso  1.0000
 Cl5_A2_n386 Cl1-    0.738700    0.237100    0.770678    2.000000 Uiso  1.0000
 Cl6_A2_n386 Cl1-    0.261300    0.762900    0.770678    2.000000 Uiso  1.0000
 Li3_A2_n386 Li+    0.000000    0.500000    0.771000    2.000000 Uiso  0.2700
 Sc1_A2_n387_fault Sc3+    0.500000    0.333330    0.773000    2.000000 Uiso  1.0000
 Cl1_A2_n387_fault Cl1-    0.742100    1.102030    0.773000    2.000000 Uiso  1.0000
 Cl2_A2_n387_fault Cl1-    0.257900    0.564630    0.773000    2.000000 Uiso  1.0000
 Cl3_A2_n387_fault Cl1-    0.738700    0.570430    0.773322    2.000000 Uiso  1.0000
 Cl4_A2_n387_fault Cl1-    0.261300    1.096230    0.773322    2.000000 Uiso  1.0000
 Cl5_A2_n387_fault Cl1-    0.738700    0.570430    0.772678    2.000000 Uiso  1.0000
 Cl6_A2_n387_fault Cl1-    0.261300    1.096230    0.772678    2.000000 Uiso  1.0000
 Li3_A2_n387_fault Li+    0.000000    0.833330    0.773000    2.000000 Uiso  0.2700
 Sc1_A2_n388 Sc3+    0.500000    0.000000    0.775000    2.000000 Uiso  1.0000
 Cl1_A2_n388 Cl1-    0.742100    0.768700    0.775000    2.000000 Uiso  1.0000
 Cl2_A2_n388 Cl1-    0.257900    0.231300    0.775000    2.000000 Uiso  1.0000
 Cl3_A2_n388 Cl1-    0.738700    0.237100    0.775322    2.000000 Uiso  1.0000
 Cl4_A2_n388 Cl1-    0.261300    0.762900    0.775322    2.000000 Uiso  1.0000
 Cl5_A2_n388 Cl1-    0.738700    0.237100    0.774678    2.000000 Uiso  1.0000
 Cl6_A2_n388 Cl1-    0.261300    0.762900    0.774678    2.000000 Uiso  1.0000
 Li3_A2_n388 Li+    0.000000    0.500000    0.775000    2.000000 Uiso  0.2700
 Sc1_A2_n389 Sc3+    0.500000    0.000000    0.777000    2.000000 Uiso  1.0000
 Cl1_A2_n389 Cl1-    0.742100    0.768700    0.777000    2.000000 Uiso  1.0000
 Cl2_A2_n389 Cl1-    0.257900    0.231300    0.777000    2.000000 Uiso  1.0000
 Cl3_A2_n389 Cl1-    0.738700    0.237100    0.777322    2.000000 Uiso  1.0000
 Cl4_A2_n389 Cl1-    0.261300    0.762900    0.777322    2.000000 Uiso  1.0000
 Cl5_A2_n389 Cl1-    0.738700    0.237100    0.776678    2.000000 Uiso  1.0000
 Cl6_A2_n389 Cl1-    0.261300    0.762900    0.776678    2.000000 Uiso  1.0000
 Li3_A2_n389 Li+    0.000000    0.500000    0.777000    2.000000 Uiso  0.2700
 Sc1_A2_n390 Sc3+    0.500000    0.000000    0.779000    2.000000 Uiso  1.0000
 Cl1_A2_n390 Cl1-    0.742100    0.768700    0.779000    2.000000 Uiso  1.0000
 Cl2_A2_n390 Cl1-    0.257900    0.231300    0.779000    2.000000 Uiso  1.0000
 Cl3_A2_n390 Cl1-    0.738700    0.237100    0.779322    2.000000 Uiso  1.0000
 Cl4_A2_n390 Cl1-    0.261300    0.762900    0.779322    2.000000 Uiso  1.0000
 Cl5_A2_n390 Cl1-    0.738700    0.237100    0.778678    2.000000 Uiso  1.0000
 Cl6_A2_n390 Cl1-    0.261300    0.762900    0.778678    2.000000 Uiso  1.0000
 Li3_A2_n390 Li+    0.000000    0.500000    0.779000    2.000000 Uiso  0.2700
 Sc1_A2_n391 Sc3+    0.500000    0.000000    0.781000    2.000000 Uiso  1.0000
 Cl1_A2_n391 Cl1-    0.742100    0.768700    0.781000    2.000000 Uiso  1.0000
 Cl2_A2_n391 Cl1-    0.257900    0.231300    0.781000    2.000000 Uiso  1.0000
 Cl3_A2_n391 Cl1-    0.738700    0.237100    0.781322    2.000000 Uiso  1.0000
 Cl4_A2_n391 Cl1-    0.261300    0.762900    0.781322    2.000000 Uiso  1.0000
 Cl5_A2_n391 Cl1-    0.738700    0.237100    0.780678    2.000000 Uiso  1.0000
 Cl6_A2_n391 Cl1-    0.261300    0.762900    0.780678    2.000000 Uiso  1.0000
 Li3_A2_n391 Li+    0.000000    0.500000    0.781000    2.000000 Uiso  0.2700
 Sc1_A2_n392 Sc3+    0.500000    0.000000    0.783000    2.000000 Uiso  1.0000
 Cl1_A2_n392 Cl1-    0.742100    0.768700    0.783000    2.000000 Uiso  1.0000
 Cl2_A2_n392 Cl1-    0.257900    0.231300    0.783000    2.000000 Uiso  1.0000
 Cl3_A2_n392 Cl1-    0.738700    0.237100    0.783322    2.000000 Uiso  1.0000
 Cl4_A2_n392 Cl1-    0.261300    0.762900    0.783322    2.000000 Uiso  1.0000
 Cl5_A2_n392 Cl1-    0.738700    0.237100    0.782678    2.000000 Uiso  1.0000
 Cl6_A2_n392 Cl1-    0.261300    0.762900    0.782678    2.000000 Uiso  1.0000
 Li3_A2_n392 Li+    0.000000    0.500000    0.783000    2.000000 Uiso  0.2700
 Sc1_A2_n393 Sc3+    0.500000    0.000000    0.785000    2.000000 Uiso  1.0000
 Cl1_A2_n393 Cl1-    0.742100    0.768700    0.785000    2.000000 Uiso  1.0000
 Cl2_A2_n393 Cl1-    0.257900    0.231300    0.785000    2.000000 Uiso  1.0000
 Cl3_A2_n393 Cl1-    0.738700    0.237100    0.785322    2.000000 Uiso  1.0000
 Cl4_A2_n393 Cl1-    0.261300    0.762900    0.785322    2.000000 Uiso  1.0000
 Cl5_A2_n393 Cl1-    0.738700    0.237100    0.784678    2.000000 Uiso  1.0000
 Cl6_A2_n393 Cl1-    0.261300    0.762900    0.784678    2.000000 Uiso  1.0000
 Li3_A2_n393 Li+    0.000000    0.500000    0.785000    2.000000 Uiso  0.2700
 Sc1_A2_n394 Sc3+    0.500000    0.000000    0.787000    2.000000 Uiso  1.0000
 Cl1_A2_n394 Cl1-    0.742100    0.768700    0.787000    2.000000 Uiso  1.0000
 Cl2_A2_n394 Cl1-    0.257900    0.231300    0.787000    2.000000 Uiso  1.0000
 Cl3_A2_n394 Cl1-    0.738700    0.237100    0.787322    2.000000 Uiso  1.0000
 Cl4_A2_n394 Cl1-    0.261300    0.762900    0.787322    2.000000 Uiso  1.0000
 Cl5_A2_n394 Cl1-    0.738700    0.237100    0.786678    2.000000 Uiso  1.0000
 Cl6_A2_n394 Cl1-    0.261300    0.762900    0.786678    2.000000 Uiso  1.0000
 Li3_A2_n394 Li+    0.000000    0.500000    0.787000    2.000000 Uiso  0.2700
 Sc1_A2_n395 Sc3+    0.500000    0.000000    0.789000    2.000000 Uiso  1.0000
 Cl1_A2_n395 Cl1-    0.742100    0.768700    0.789000    2.000000 Uiso  1.0000
 Cl2_A2_n395 Cl1-    0.257900    0.231300    0.789000    2.000000 Uiso  1.0000
 Cl3_A2_n395 Cl1-    0.738700    0.237100    0.789322    2.000000 Uiso  1.0000
 Cl4_A2_n395 Cl1-    0.261300    0.762900    0.789322    2.000000 Uiso  1.0000
 Cl5_A2_n395 Cl1-    0.738700    0.237100    0.788678    2.000000 Uiso  1.0000
 Cl6_A2_n395 Cl1-    0.261300    0.762900    0.788678    2.000000 Uiso  1.0000
 Li3_A2_n395 Li+    0.000000    0.500000    0.789000    2.000000 Uiso  0.2700
 Sc1_A2_n396 Sc3+    0.500000    0.000000    0.791000    2.000000 Uiso  1.0000
 Cl1_A2_n396 Cl1-    0.742100    0.768700    0.791000    2.000000 Uiso  1.0000
 Cl2_A2_n396 Cl1-    0.257900    0.231300    0.791000    2.000000 Uiso  1.0000
 Cl3_A2_n396 Cl1-    0.738700    0.237100    0.791322    2.000000 Uiso  1.0000
 Cl4_A2_n396 Cl1-    0.261300    0.762900    0.791322    2.000000 Uiso  1.0000
 Cl5_A2_n396 Cl1-    0.738700    0.237100    0.790678    2.000000 Uiso  1.0000
 Cl6_A2_n396 Cl1-    0.261300    0.762900    0.790678    2.000000 Uiso  1.0000
 Li3_A2_n396 Li+    0.000000    0.500000    0.791000    2.000000 Uiso  0.2700
 Sc1_A2_n397 Sc3+    0.500000    0.000000    0.793000    2.000000 Uiso  1.0000
 Cl1_A2_n397 Cl1-    0.742100    0.768700    0.793000    2.000000 Uiso  1.0000
 Cl2_A2_n397 Cl1-    0.257900    0.231300    0.793000    2.000000 Uiso  1.0000
 Cl3_A2_n397 Cl1-    0.738700    0.237100    0.793322    2.000000 Uiso  1.0000
 Cl4_A2_n397 Cl1-    0.261300    0.762900    0.793322    2.000000 Uiso  1.0000
 Cl5_A2_n397 Cl1-    0.738700    0.237100    0.792678    2.000000 Uiso  1.0000
 Cl6_A2_n397 Cl1-    0.261300    0.762900    0.792678    2.000000 Uiso  1.0000
 Li3_A2_n397 Li+    0.000000    0.500000    0.793000    2.000000 Uiso  0.2700
 Sc1_A2_n398_fault Sc3+    0.500000    0.333330    0.795000    2.000000 Uiso  1.0000
 Cl1_A2_n398_fault Cl1-    0.742100    1.102030    0.795000    2.000000 Uiso  1.0000
 Cl2_A2_n398_fault Cl1-    0.257900    0.564630    0.795000    2.000000 Uiso  1.0000
 Cl3_A2_n398_fault Cl1-    0.738700    0.570430    0.795322    2.000000 Uiso  1.0000
 Cl4_A2_n398_fault Cl1-    0.261300    1.096230    0.795322    2.000000 Uiso  1.0000
 Cl5_A2_n398_fault Cl1-    0.738700    0.570430    0.794678    2.000000 Uiso  1.0000
 Cl6_A2_n398_fault Cl1-    0.261300    1.096230    0.794678    2.000000 Uiso  1.0000
 Li3_A2_n398_fault Li+    0.000000    0.833330    0.795000    2.000000 Uiso  0.2700
 Sc1_A2_n399 Sc3+    0.500000    0.000000    0.797000    2.000000 Uiso  1.0000
 Cl1_A2_n399 Cl1-    0.742100    0.768700    0.797000    2.000000 Uiso  1.0000
 Cl2_A2_n399 Cl1-    0.257900    0.231300    0.797000    2.000000 Uiso  1.0000
 Cl3_A2_n399 Cl1-    0.738700    0.237100    0.797322    2.000000 Uiso  1.0000
 Cl4_A2_n399 Cl1-    0.261300    0.762900    0.797322    2.000000 Uiso  1.0000
 Cl5_A2_n399 Cl1-    0.738700    0.237100    0.796678    2.000000 Uiso  1.0000
 Cl6_A2_n399 Cl1-    0.261300    0.762900    0.796678    2.000000 Uiso  1.0000
 Li3_A2_n399 Li+    0.000000    0.500000    0.797000    2.000000 Uiso  0.2700
 Sc1_A2_n400 Sc3+    0.500000    0.000000    0.799000    2.000000 Uiso  1.0000
 Cl1_A2_n400 Cl1-    0.742100    0.768700    0.799000    2.000000 Uiso  1.0000
 Cl2_A2_n400 Cl1-    0.257900    0.231300    0.799000    2.000000 Uiso  1.0000
 Cl3_A2_n400 Cl1-    0.738700    0.237100    0.799322    2.000000 Uiso  1.0000
 Cl4_A2_n400 Cl1-    0.261300    0.762900    0.799322    2.000000 Uiso  1.0000
 Cl5_A2_n400 Cl1-    0.738700    0.237100    0.798678    2.000000 Uiso  1.0000
 Cl6_A2_n400 Cl1-    0.261300    0.762900    0.798678    2.000000 Uiso  1.0000
 Li3_A2_n400 Li+    0.000000    0.500000    0.799000    2.000000 Uiso  0.2700
 Sc1_A2_n401 Sc3+    0.500000    0.000000    0.801000    2.000000 Uiso  1.0000
 Cl1_A2_n401 Cl1-    0.742100    0.768700    0.801000    2.000000 Uiso  1.0000
 Cl2_A2_n401 Cl1-    0.257900    0.231300    0.801000    2.000000 Uiso  1.0000
 Cl3_A2_n401 Cl1-    0.738700    0.237100    0.801322    2.000000 Uiso  1.0000
 Cl4_A2_n401 Cl1-    0.261300    0.762900    0.801322    2.000000 Uiso  1.0000
 Cl5_A2_n401 Cl1-    0.738700    0.237100    0.800678    2.000000 Uiso  1.0000
 Cl6_A2_n401 Cl1-    0.261300    0.762900    0.800678    2.000000 Uiso  1.0000
 Li3_A2_n401 Li+    0.000000    0.500000    0.801000    2.000000 Uiso  0.2700
 Sc1_A2_n402_fault Sc3+    0.500000    0.333330    0.803000    2.000000 Uiso  1.0000
 Cl1_A2_n402_fault Cl1-    0.742100    1.102030    0.803000    2.000000 Uiso  1.0000
 Cl2_A2_n402_fault Cl1-    0.257900    0.564630    0.803000    2.000000 Uiso  1.0000
 Cl3_A2_n402_fault Cl1-    0.738700    0.570430    0.803322    2.000000 Uiso  1.0000
 Cl4_A2_n402_fault Cl1-    0.261300    1.096230    0.803322    2.000000 Uiso  1.0000
 Cl5_A2_n402_fault Cl1-    0.738700    0.570430    0.802678    2.000000 Uiso  1.0000
 Cl6_A2_n402_fault Cl1-    0.261300    1.096230    0.802678    2.000000 Uiso  1.0000
 Li3_A2_n402_fault Li+    0.000000    0.833330    0.803000    2.000000 Uiso  0.2700
 Sc1_A2_n403 Sc3+    0.500000    0.000000    0.805000    2.000000 Uiso  1.0000
 Cl1_A2_n403 Cl1-    0.742100    0.768700    0.805000    2.000000 Uiso  1.0000
 Cl2_A2_n403 Cl1-    0.257900    0.231300    0.805000    2.000000 Uiso  1.0000
 Cl3_A2_n403 Cl1-    0.738700    0.237100    0.805322    2.000000 Uiso  1.0000
 Cl4_A2_n403 Cl1-    0.261300    0.762900    0.805322    2.000000 Uiso  1.0000
 Cl5_A2_n403 Cl1-    0.738700    0.237100    0.804678    2.000000 Uiso  1.0000
 Cl6_A2_n403 Cl1-    0.261300    0.762900    0.804678    2.000000 Uiso  1.0000
 Li3_A2_n403 Li+    0.000000    0.500000    0.805000    2.000000 Uiso  0.2700
 Sc1_A2_n404_fault Sc3+    0.500000    0.333330    0.807000    2.000000 Uiso  1.0000
 Cl1_A2_n404_fault Cl1-    0.742100    1.102030    0.807000    2.000000 Uiso  1.0000
 Cl2_A2_n404_fault Cl1-    0.257900    0.564630    0.807000    2.000000 Uiso  1.0000
 Cl3_A2_n404_fault Cl1-    0.738700    0.570430    0.807322    2.000000 Uiso  1.0000
 Cl4_A2_n404_fault Cl1-    0.261300    1.096230    0.807322    2.000000 Uiso  1.0000
 Cl5_A2_n404_fault Cl1-    0.738700    0.570430    0.806678    2.000000 Uiso  1.0000
 Cl6_A2_n404_fault Cl1-    0.261300    1.096230    0.806678    2.000000 Uiso  1.0000
 Li3_A2_n404_fault Li+    0.000000    0.833330    0.807000    2.000000 Uiso  0.2700
 Sc1_A2_n405 Sc3+    0.500000    0.000000    0.809000    2.000000 Uiso  1.0000
 Cl1_A2_n405 Cl1-    0.742100    0.768700    0.809000    2.000000 Uiso  1.0000
 Cl2_A2_n405 Cl1-    0.257900    0.231300    0.809000    2.000000 Uiso  1.0000
 Cl3_A2_n405 Cl1-    0.738700    0.237100    0.809322    2.000000 Uiso  1.0000
 Cl4_A2_n405 Cl1-    0.261300    0.762900    0.809322    2.000000 Uiso  1.0000
 Cl5_A2_n405 Cl1-    0.738700    0.237100    0.808678    2.000000 Uiso  1.0000
 Cl6_A2_n405 Cl1-    0.261300    0.762900    0.808678    2.000000 Uiso  1.0000
 Li3_A2_n405 Li+    0.000000    0.500000    0.809000    2.000000 Uiso  0.2700
 Sc1_A2_n406 Sc3+    0.500000    0.000000    0.811000    2.000000 Uiso  1.0000
 Cl1_A2_n406 Cl1-    0.742100    0.768700    0.811000    2.000000 Uiso  1.0000
 Cl2_A2_n406 Cl1-    0.257900    0.231300    0.811000    2.000000 Uiso  1.0000
 Cl3_A2_n406 Cl1-    0.738700    0.237100    0.811322    2.000000 Uiso  1.0000
 Cl4_A2_n406 Cl1-    0.261300    0.762900    0.811322    2.000000 Uiso  1.0000
 Cl5_A2_n406 Cl1-    0.738700    0.237100    0.810678    2.000000 Uiso  1.0000
 Cl6_A2_n406 Cl1-    0.261300    0.762900    0.810678    2.000000 Uiso  1.0000
 Li3_A2_n406 Li+    0.000000    0.500000    0.811000    2.000000 Uiso  0.2700
 Sc1_A2_n407_fault Sc3+    0.500000    0.333330    0.813000    2.000000 Uiso  1.0000
 Cl1_A2_n407_fault Cl1-    0.742100    1.102030    0.813000    2.000000 Uiso  1.0000
 Cl2_A2_n407_fault Cl1-    0.257900    0.564630    0.813000    2.000000 Uiso  1.0000
 Cl3_A2_n407_fault Cl1-    0.738700    0.570430    0.813322    2.000000 Uiso  1.0000
 Cl4_A2_n407_fault Cl1-    0.261300    1.096230    0.813322    2.000000 Uiso  1.0000
 Cl5_A2_n407_fault Cl1-    0.738700    0.570430    0.812678    2.000000 Uiso  1.0000
 Cl6_A2_n407_fault Cl1-    0.261300    1.096230    0.812678    2.000000 Uiso  1.0000
 Li3_A2_n407_fault Li+    0.000000    0.833330    0.813000    2.000000 Uiso  0.2700
 Sc1_A2_n408 Sc3+    0.500000    0.000000    0.815000    2.000000 Uiso  1.0000
 Cl1_A2_n408 Cl1-    0.742100    0.768700    0.815000    2.000000 Uiso  1.0000
 Cl2_A2_n408 Cl1-    0.257900    0.231300    0.815000    2.000000 Uiso  1.0000
 Cl3_A2_n408 Cl1-    0.738700    0.237100    0.815322    2.000000 Uiso  1.0000
 Cl4_A2_n408 Cl1-    0.261300    0.762900    0.815322    2.000000 Uiso  1.0000
 Cl5_A2_n408 Cl1-    0.738700    0.237100    0.814678    2.000000 Uiso  1.0000
 Cl6_A2_n408 Cl1-    0.261300    0.762900    0.814678    2.000000 Uiso  1.0000
 Li3_A2_n408 Li+    0.000000    0.500000    0.815000    2.000000 Uiso  0.2700
 Sc1_A2_n409 Sc3+    0.500000    0.000000    0.817000    2.000000 Uiso  1.0000
 Cl1_A2_n409 Cl1-    0.742100    0.768700    0.817000    2.000000 Uiso  1.0000
 Cl2_A2_n409 Cl1-    0.257900    0.231300    0.817000    2.000000 Uiso  1.0000
 Cl3_A2_n409 Cl1-    0.738700    0.237100    0.817322    2.000000 Uiso  1.0000
 Cl4_A2_n409 Cl1-    0.261300    0.762900    0.817322    2.000000 Uiso  1.0000
 Cl5_A2_n409 Cl1-    0.738700    0.237100    0.816678    2.000000 Uiso  1.0000
 Cl6_A2_n409 Cl1-    0.261300    0.762900    0.816678    2.000000 Uiso  1.0000
 Li3_A2_n409 Li+    0.000000    0.500000    0.817000    2.000000 Uiso  0.2700
 Sc1_A2_n410 Sc3+    0.500000    0.000000    0.819000    2.000000 Uiso  1.0000
 Cl1_A2_n410 Cl1-    0.742100    0.768700    0.819000    2.000000 Uiso  1.0000
 Cl2_A2_n410 Cl1-    0.257900    0.231300    0.819000    2.000000 Uiso  1.0000
 Cl3_A2_n410 Cl1-    0.738700    0.237100    0.819322    2.000000 Uiso  1.0000
 Cl4_A2_n410 Cl1-    0.261300    0.762900    0.819322    2.000000 Uiso  1.0000
 Cl5_A2_n410 Cl1-    0.738700    0.237100    0.818678    2.000000 Uiso  1.0000
 Cl6_A2_n410 Cl1-    0.261300    0.762900    0.818678    2.000000 Uiso  1.0000
 Li3_A2_n410 Li+    0.000000    0.500000    0.819000    2.000000 Uiso  0.2700
 Sc1_A2_n411 Sc3+    0.500000    0.000000    0.821000    2.000000 Uiso  1.0000
 Cl1_A2_n411 Cl1-    0.742100    0.768700    0.821000    2.000000 Uiso  1.0000
 Cl2_A2_n411 Cl1-    0.257900    0.231300    0.821000    2.000000 Uiso  1.0000
 Cl3_A2_n411 Cl1-    0.738700    0.237100    0.821322    2.000000 Uiso  1.0000
 Cl4_A2_n411 Cl1-    0.261300    0.762900    0.821322    2.000000 Uiso  1.0000
 Cl5_A2_n411 Cl1-    0.738700    0.237100    0.820678    2.000000 Uiso  1.0000
 Cl6_A2_n411 Cl1-    0.261300    0.762900    0.820678    2.000000 Uiso  1.0000
 Li3_A2_n411 Li+    0.000000    0.500000    0.821000    2.000000 Uiso  0.2700
 Sc1_A2_n412 Sc3+    0.500000    0.000000    0.823000    2.000000 Uiso  1.0000
 Cl1_A2_n412 Cl1-    0.742100    0.768700    0.823000    2.000000 Uiso  1.0000
 Cl2_A2_n412 Cl1-    0.257900    0.231300    0.823000    2.000000 Uiso  1.0000
 Cl3_A2_n412 Cl1-    0.738700    0.237100    0.823322    2.000000 Uiso  1.0000
 Cl4_A2_n412 Cl1-    0.261300    0.762900    0.823322    2.000000 Uiso  1.0000
 Cl5_A2_n412 Cl1-    0.738700    0.237100    0.822678    2.000000 Uiso  1.0000
 Cl6_A2_n412 Cl1-    0.261300    0.762900    0.822678    2.000000 Uiso  1.0000
 Li3_A2_n412 Li+    0.000000    0.500000    0.823000    2.000000 Uiso  0.2700
 Sc1_A2_n413_fault Sc3+    0.500000    0.333330    0.825000    2.000000 Uiso  1.0000
 Cl1_A2_n413_fault Cl1-    0.742100    1.102030    0.825000    2.000000 Uiso  1.0000
 Cl2_A2_n413_fault Cl1-    0.257900    0.564630    0.825000    2.000000 Uiso  1.0000
 Cl3_A2_n413_fault Cl1-    0.738700    0.570430    0.825322    2.000000 Uiso  1.0000
 Cl4_A2_n413_fault Cl1-    0.261300    1.096230    0.825322    2.000000 Uiso  1.0000
 Cl5_A2_n413_fault Cl1-    0.738700    0.570430    0.824678    2.000000 Uiso  1.0000
 Cl6_A2_n413_fault Cl1-    0.261300    1.096230    0.824678    2.000000 Uiso  1.0000
 Li3_A2_n413_fault Li+    0.000000    0.833330    0.825000    2.000000 Uiso  0.2700
 Sc1_A2_n414_fault Sc3+    0.500000    0.333330    0.827000    2.000000 Uiso  1.0000
 Cl1_A2_n414_fault Cl1-    0.742100    1.102030    0.827000    2.000000 Uiso  1.0000
 Cl2_A2_n414_fault Cl1-    0.257900    0.564630    0.827000    2.000000 Uiso  1.0000
 Cl3_A2_n414_fault Cl1-    0.738700    0.570430    0.827322    2.000000 Uiso  1.0000
 Cl4_A2_n414_fault Cl1-    0.261300    1.096230    0.827322    2.000000 Uiso  1.0000
 Cl5_A2_n414_fault Cl1-    0.738700    0.570430    0.826678    2.000000 Uiso  1.0000
 Cl6_A2_n414_fault Cl1-    0.261300    1.096230    0.826678    2.000000 Uiso  1.0000
 Li3_A2_n414_fault Li+    0.000000    0.833330    0.827000    2.000000 Uiso  0.2700
 Sc1_A2_n415 Sc3+    0.500000    0.000000    0.829000    2.000000 Uiso  1.0000
 Cl1_A2_n415 Cl1-    0.742100    0.768700    0.829000    2.000000 Uiso  1.0000
 Cl2_A2_n415 Cl1-    0.257900    0.231300    0.829000    2.000000 Uiso  1.0000
 Cl3_A2_n415 Cl1-    0.738700    0.237100    0.829322    2.000000 Uiso  1.0000
 Cl4_A2_n415 Cl1-    0.261300    0.762900    0.829322    2.000000 Uiso  1.0000
 Cl5_A2_n415 Cl1-    0.738700    0.237100    0.828678    2.000000 Uiso  1.0000
 Cl6_A2_n415 Cl1-    0.261300    0.762900    0.828678    2.000000 Uiso  1.0000
 Li3_A2_n415 Li+    0.000000    0.500000    0.829000    2.000000 Uiso  0.2700
 Sc1_A2_n416 Sc3+    0.500000    0.000000    0.831000    2.000000 Uiso  1.0000
 Cl1_A2_n416 Cl1-    0.742100    0.768700    0.831000    2.000000 Uiso  1.0000
 Cl2_A2_n416 Cl1-    0.257900    0.231300    0.831000    2.000000 Uiso  1.0000
 Cl3_A2_n416 Cl1-    0.738700    0.237100    0.831322    2.000000 Uiso  1.0000
 Cl4_A2_n416 Cl1-    0.261300    0.762900    0.831322    2.000000 Uiso  1.0000
 Cl5_A2_n416 Cl1-    0.738700    0.237100    0.830678    2.000000 Uiso  1.0000
 Cl6_A2_n416 Cl1-    0.261300    0.762900    0.830678    2.000000 Uiso  1.0000
 Li3_A2_n416 Li+    0.000000    0.500000    0.831000    2.000000 Uiso  0.2700
 Sc1_A2_n417 Sc3+    0.500000    0.000000    0.833000    2.000000 Uiso  1.0000
 Cl1_A2_n417 Cl1-    0.742100    0.768700    0.833000    2.000000 Uiso  1.0000
 Cl2_A2_n417 Cl1-    0.257900    0.231300    0.833000    2.000000 Uiso  1.0000
 Cl3_A2_n417 Cl1-    0.738700    0.237100    0.833322    2.000000 Uiso  1.0000
 Cl4_A2_n417 Cl1-    0.261300    0.762900    0.833322    2.000000 Uiso  1.0000
 Cl5_A2_n417 Cl1-    0.738700    0.237100    0.832678    2.000000 Uiso  1.0000
 Cl6_A2_n417 Cl1-    0.261300    0.762900    0.832678    2.000000 Uiso  1.0000
 Li3_A2_n417 Li+    0.000000    0.500000    0.833000    2.000000 Uiso  0.2700
 Sc1_A2_n418_fault Sc3+    0.500000    0.333330    0.835000    2.000000 Uiso  1.0000
 Cl1_A2_n418_fault Cl1-    0.742100    1.102030    0.835000    2.000000 Uiso  1.0000
 Cl2_A2_n418_fault Cl1-    0.257900    0.564630    0.835000    2.000000 Uiso  1.0000
 Cl3_A2_n418_fault Cl1-    0.738700    0.570430    0.835322    2.000000 Uiso  1.0000
 Cl4_A2_n418_fault Cl1-    0.261300    1.096230    0.835322    2.000000 Uiso  1.0000
 Cl5_A2_n418_fault Cl1-    0.738700    0.570430    0.834678    2.000000 Uiso  1.0000
 Cl6_A2_n418_fault Cl1-    0.261300    1.096230    0.834678    2.000000 Uiso  1.0000
 Li3_A2_n418_fault Li+    0.000000    0.833330    0.835000    2.000000 Uiso  0.2700
 Sc1_A2_n419_fault Sc3+    0.500000    0.333330    0.837000    2.000000 Uiso  1.0000
 Cl1_A2_n419_fault Cl1-    0.742100    1.102030    0.837000    2.000000 Uiso  1.0000
 Cl2_A2_n419_fault Cl1-    0.257900    0.564630    0.837000    2.000000 Uiso  1.0000
 Cl3_A2_n419_fault Cl1-    0.738700    0.570430    0.837322    2.000000 Uiso  1.0000
 Cl4_A2_n419_fault Cl1-    0.261300    1.096230    0.837322    2.000000 Uiso  1.0000
 Cl5_A2_n419_fault Cl1-    0.738700    0.570430    0.836678    2.000000 Uiso  1.0000
 Cl6_A2_n419_fault Cl1-    0.261300    1.096230    0.836678    2.000000 Uiso  1.0000
 Li3_A2_n419_fault Li+    0.000000    0.833330    0.837000    2.000000 Uiso  0.2700
 Sc1_A2_n420 Sc3+    0.500000    0.000000    0.839000    2.000000 Uiso  1.0000
 Cl1_A2_n420 Cl1-    0.742100    0.768700    0.839000    2.000000 Uiso  1.0000
 Cl2_A2_n420 Cl1-    0.257900    0.231300    0.839000    2.000000 Uiso  1.0000
 Cl3_A2_n420 Cl1-    0.738700    0.237100    0.839322    2.000000 Uiso  1.0000
 Cl4_A2_n420 Cl1-    0.261300    0.762900    0.839322    2.000000 Uiso  1.0000
 Cl5_A2_n420 Cl1-    0.738700    0.237100    0.838678    2.000000 Uiso  1.0000
 Cl6_A2_n420 Cl1-    0.261300    0.762900    0.838678    2.000000 Uiso  1.0000
 Li3_A2_n420 Li+    0.000000    0.500000    0.839000    2.000000 Uiso  0.2700
 Sc1_A2_n421 Sc3+    0.500000    0.000000    0.841000    2.000000 Uiso  1.0000
 Cl1_A2_n421 Cl1-    0.742100    0.768700    0.841000    2.000000 Uiso  1.0000
 Cl2_A2_n421 Cl1-    0.257900    0.231300    0.841000    2.000000 Uiso  1.0000
 Cl3_A2_n421 Cl1-    0.738700    0.237100    0.841322    2.000000 Uiso  1.0000
 Cl4_A2_n421 Cl1-    0.261300    0.762900    0.841322    2.000000 Uiso  1.0000
 Cl5_A2_n421 Cl1-    0.738700    0.237100    0.840678    2.000000 Uiso  1.0000
 Cl6_A2_n421 Cl1-    0.261300    0.762900    0.840678    2.000000 Uiso  1.0000
 Li3_A2_n421 Li+    0.000000    0.500000    0.841000    2.000000 Uiso  0.2700
 Sc1_A2_n422 Sc3+    0.500000    0.000000    0.843000    2.000000 Uiso  1.0000
 Cl1_A2_n422 Cl1-    0.742100    0.768700    0.843000    2.000000 Uiso  1.0000
 Cl2_A2_n422 Cl1-    0.257900    0.231300    0.843000    2.000000 Uiso  1.0000
 Cl3_A2_n422 Cl1-    0.738700    0.237100    0.843322    2.000000 Uiso  1.0000
 Cl4_A2_n422 Cl1-    0.261300    0.762900    0.843322    2.000000 Uiso  1.0000
 Cl5_A2_n422 Cl1-    0.738700    0.237100    0.842678    2.000000 Uiso  1.0000
 Cl6_A2_n422 Cl1-    0.261300    0.762900    0.842678    2.000000 Uiso  1.0000
 Li3_A2_n422 Li+    0.000000    0.500000    0.843000    2.000000 Uiso  0.2700
 Sc1_A2_n423 Sc3+    0.500000    0.000000    0.845000    2.000000 Uiso  1.0000
 Cl1_A2_n423 Cl1-    0.742100    0.768700    0.845000    2.000000 Uiso  1.0000
 Cl2_A2_n423 Cl1-    0.257900    0.231300    0.845000    2.000000 Uiso  1.0000
 Cl3_A2_n423 Cl1-    0.738700    0.237100    0.845322    2.000000 Uiso  1.0000
 Cl4_A2_n423 Cl1-    0.261300    0.762900    0.845322    2.000000 Uiso  1.0000
 Cl5_A2_n423 Cl1-    0.738700    0.237100    0.844678    2.000000 Uiso  1.0000
 Cl6_A2_n423 Cl1-    0.261300    0.762900    0.844678    2.000000 Uiso  1.0000
 Li3_A2_n423 Li+    0.000000    0.500000    0.845000    2.000000 Uiso  0.2700
 Sc1_A2_n424_fault Sc3+    0.500000    0.333330    0.847000    2.000000 Uiso  1.0000
 Cl1_A2_n424_fault Cl1-    0.742100    1.102030    0.847000    2.000000 Uiso  1.0000
 Cl2_A2_n424_fault Cl1-    0.257900    0.564630    0.847000    2.000000 Uiso  1.0000
 Cl3_A2_n424_fault Cl1-    0.738700    0.570430    0.847322    2.000000 Uiso  1.0000
 Cl4_A2_n424_fault Cl1-    0.261300    1.096230    0.847322    2.000000 Uiso  1.0000
 Cl5_A2_n424_fault Cl1-    0.738700    0.570430    0.846678    2.000000 Uiso  1.0000
 Cl6_A2_n424_fault Cl1-    0.261300    1.096230    0.846678    2.000000 Uiso  1.0000
 Li3_A2_n424_fault Li+    0.000000    0.833330    0.847000    2.000000 Uiso  0.2700
 Sc1_A2_n425 Sc3+    0.500000    0.000000    0.849000    2.000000 Uiso  1.0000
 Cl1_A2_n425 Cl1-    0.742100    0.768700    0.849000    2.000000 Uiso  1.0000
 Cl2_A2_n425 Cl1-    0.257900    0.231300    0.849000    2.000000 Uiso  1.0000
 Cl3_A2_n425 Cl1-    0.738700    0.237100    0.849322    2.000000 Uiso  1.0000
 Cl4_A2_n425 Cl1-    0.261300    0.762900    0.849322    2.000000 Uiso  1.0000
 Cl5_A2_n425 Cl1-    0.738700    0.237100    0.848678    2.000000 Uiso  1.0000
 Cl6_A2_n425 Cl1-    0.261300    0.762900    0.848678    2.000000 Uiso  1.0000
 Li3_A2_n425 Li+    0.000000    0.500000    0.849000    2.000000 Uiso  0.2700
 Sc1_A2_n426_fault Sc3+    0.500000    0.333330    0.851000    2.000000 Uiso  1.0000
 Cl1_A2_n426_fault Cl1-    0.742100    1.102030    0.851000    2.000000 Uiso  1.0000
 Cl2_A2_n426_fault Cl1-    0.257900    0.564630    0.851000    2.000000 Uiso  1.0000
 Cl3_A2_n426_fault Cl1-    0.738700    0.570430    0.851322    2.000000 Uiso  1.0000
 Cl4_A2_n426_fault Cl1-    0.261300    1.096230    0.851322    2.000000 Uiso  1.0000
 Cl5_A2_n426_fault Cl1-    0.738700    0.570430    0.850678    2.000000 Uiso  1.0000
 Cl6_A2_n426_fault Cl1-    0.261300    1.096230    0.850678    2.000000 Uiso  1.0000
 Li3_A2_n426_fault Li+    0.000000    0.833330    0.851000    2.000000 Uiso  0.2700
 Sc1_A2_n427_fault Sc3+    0.500000    0.333330    0.853000    2.000000 Uiso  1.0000
 Cl1_A2_n427_fault Cl1-    0.742100    1.102030    0.853000    2.000000 Uiso  1.0000
 Cl2_A2_n427_fault Cl1-    0.257900    0.564630    0.853000    2.000000 Uiso  1.0000
 Cl3_A2_n427_fault Cl1-    0.738700    0.570430    0.853322    2.000000 Uiso  1.0000
 Cl4_A2_n427_fault Cl1-    0.261300    1.096230    0.853322    2.000000 Uiso  1.0000
 Cl5_A2_n427_fault Cl1-    0.738700    0.570430    0.852678    2.000000 Uiso  1.0000
 Cl6_A2_n427_fault Cl1-    0.261300    1.096230    0.852678    2.000000 Uiso  1.0000
 Li3_A2_n427_fault Li+    0.000000    0.833330    0.853000    2.000000 Uiso  0.2700
 Sc1_A2_n428 Sc3+    0.500000    0.000000    0.855000    2.000000 Uiso  1.0000
 Cl1_A2_n428 Cl1-    0.742100    0.768700    0.855000    2.000000 Uiso  1.0000
 Cl2_A2_n428 Cl1-    0.257900    0.231300    0.855000    2.000000 Uiso  1.0000
 Cl3_A2_n428 Cl1-    0.738700    0.237100    0.855322    2.000000 Uiso  1.0000
 Cl4_A2_n428 Cl1-    0.261300    0.762900    0.855322    2.000000 Uiso  1.0000
 Cl5_A2_n428 Cl1-    0.738700    0.237100    0.854678    2.000000 Uiso  1.0000
 Cl6_A2_n428 Cl1-    0.261300    0.762900    0.854678    2.000000 Uiso  1.0000
 Li3_A2_n428 Li+    0.000000    0.500000    0.855000    2.000000 Uiso  0.2700
 Sc1_A2_n429 Sc3+    0.500000    0.000000    0.857000    2.000000 Uiso  1.0000
 Cl1_A2_n429 Cl1-    0.742100    0.768700    0.857000    2.000000 Uiso  1.0000
 Cl2_A2_n429 Cl1-    0.257900    0.231300    0.857000    2.000000 Uiso  1.0000
 Cl3_A2_n429 Cl1-    0.738700    0.237100    0.857322    2.000000 Uiso  1.0000
 Cl4_A2_n429 Cl1-    0.261300    0.762900    0.857322    2.000000 Uiso  1.0000
 Cl5_A2_n429 Cl1-    0.738700    0.237100    0.856678    2.000000 Uiso  1.0000
 Cl6_A2_n429 Cl1-    0.261300    0.762900    0.856678    2.000000 Uiso  1.0000
 Li3_A2_n429 Li+    0.000000    0.500000    0.857000    2.000000 Uiso  0.2700
 Sc1_A2_n430 Sc3+    0.500000    0.000000    0.859000    2.000000 Uiso  1.0000
 Cl1_A2_n430 Cl1-    0.742100    0.768700    0.859000    2.000000 Uiso  1.0000
 Cl2_A2_n430 Cl1-    0.257900    0.231300    0.859000    2.000000 Uiso  1.0000
 Cl3_A2_n430 Cl1-    0.738700    0.237100    0.859322    2.000000 Uiso  1.0000
 Cl4_A2_n430 Cl1-    0.261300    0.762900    0.859322    2.000000 Uiso  1.0000
 Cl5_A2_n430 Cl1-    0.738700    0.237100    0.858678    2.000000 Uiso  1.0000
 Cl6_A2_n430 Cl1-    0.261300    0.762900    0.858678    2.000000 Uiso  1.0000
 Li3_A2_n430 Li+    0.000000    0.500000    0.859000    2.000000 Uiso  0.2700
 Sc1_A2_n431 Sc3+    0.500000    0.000000    0.861000    2.000000 Uiso  1.0000
 Cl1_A2_n431 Cl1-    0.742100    0.768700    0.861000    2.000000 Uiso  1.0000
 Cl2_A2_n431 Cl1-    0.257900    0.231300    0.861000    2.000000 Uiso  1.0000
 Cl3_A2_n431 Cl1-    0.738700    0.237100    0.861322    2.000000 Uiso  1.0000
 Cl4_A2_n431 Cl1-    0.261300    0.762900    0.861322    2.000000 Uiso  1.0000
 Cl5_A2_n431 Cl1-    0.738700    0.237100    0.860678    2.000000 Uiso  1.0000
 Cl6_A2_n431 Cl1-    0.261300    0.762900    0.860678    2.000000 Uiso  1.0000
 Li3_A2_n431 Li+    0.000000    0.500000    0.861000    2.000000 Uiso  0.2700
 Sc1_A2_n432 Sc3+    0.500000    0.000000    0.863000    2.000000 Uiso  1.0000
 Cl1_A2_n432 Cl1-    0.742100    0.768700    0.863000    2.000000 Uiso  1.0000
 Cl2_A2_n432 Cl1-    0.257900    0.231300    0.863000    2.000000 Uiso  1.0000
 Cl3_A2_n432 Cl1-    0.738700    0.237100    0.863322    2.000000 Uiso  1.0000
 Cl4_A2_n432 Cl1-    0.261300    0.762900    0.863322    2.000000 Uiso  1.0000
 Cl5_A2_n432 Cl1-    0.738700    0.237100    0.862678    2.000000 Uiso  1.0000
 Cl6_A2_n432 Cl1-    0.261300    0.762900    0.862678    2.000000 Uiso  1.0000
 Li3_A2_n432 Li+    0.000000    0.500000    0.863000    2.000000 Uiso  0.2700
 Sc1_A2_n433 Sc3+    0.500000    0.000000    0.865000    2.000000 Uiso  1.0000
 Cl1_A2_n433 Cl1-    0.742100    0.768700    0.865000    2.000000 Uiso  1.0000
 Cl2_A2_n433 Cl1-    0.257900    0.231300    0.865000    2.000000 Uiso  1.0000
 Cl3_A2_n433 Cl1-    0.738700    0.237100    0.865322    2.000000 Uiso  1.0000
 Cl4_A2_n433 Cl1-    0.261300    0.762900    0.865322    2.000000 Uiso  1.0000
 Cl5_A2_n433 Cl1-    0.738700    0.237100    0.864678    2.000000 Uiso  1.0000
 Cl6_A2_n433 Cl1-    0.261300    0.762900    0.864678    2.000000 Uiso  1.0000
 Li3_A2_n433 Li+    0.000000    0.500000    0.865000    2.000000 Uiso  0.2700
 Sc1_A2_n434 Sc3+    0.500000    0.000000    0.867000    2.000000 Uiso  1.0000
 Cl1_A2_n434 Cl1-    0.742100    0.768700    0.867000    2.000000 Uiso  1.0000
 Cl2_A2_n434 Cl1-    0.257900    0.231300    0.867000    2.000000 Uiso  1.0000
 Cl3_A2_n434 Cl1-    0.738700    0.237100    0.867322    2.000000 Uiso  1.0000
 Cl4_A2_n434 Cl1-    0.261300    0.762900    0.867322    2.000000 Uiso  1.0000
 Cl5_A2_n434 Cl1-    0.738700    0.237100    0.866678    2.000000 Uiso  1.0000
 Cl6_A2_n434 Cl1-    0.261300    0.762900    0.866678    2.000000 Uiso  1.0000
 Li3_A2_n434 Li+    0.000000    0.500000    0.867000    2.000000 Uiso  0.2700
 Sc1_A2_n435_fault Sc3+    0.500000    0.333330    0.869000    2.000000 Uiso  1.0000
 Cl1_A2_n435_fault Cl1-    0.742100    1.102030    0.869000    2.000000 Uiso  1.0000
 Cl2_A2_n435_fault Cl1-    0.257900    0.564630    0.869000    2.000000 Uiso  1.0000
 Cl3_A2_n435_fault Cl1-    0.738700    0.570430    0.869322    2.000000 Uiso  1.0000
 Cl4_A2_n435_fault Cl1-    0.261300    1.096230    0.869322    2.000000 Uiso  1.0000
 Cl5_A2_n435_fault Cl1-    0.738700    0.570430    0.868678    2.000000 Uiso  1.0000
 Cl6_A2_n435_fault Cl1-    0.261300    1.096230    0.868678    2.000000 Uiso  1.0000
 Li3_A2_n435_fault Li+    0.000000    0.833330    0.869000    2.000000 Uiso  0.2700
 Sc1_A2_n436 Sc3+    0.500000    0.000000    0.871000    2.000000 Uiso  1.0000
 Cl1_A2_n436 Cl1-    0.742100    0.768700    0.871000    2.000000 Uiso  1.0000
 Cl2_A2_n436 Cl1-    0.257900    0.231300    0.871000    2.000000 Uiso  1.0000
 Cl3_A2_n436 Cl1-    0.738700    0.237100    0.871322    2.000000 Uiso  1.0000
 Cl4_A2_n436 Cl1-    0.261300    0.762900    0.871322    2.000000 Uiso  1.0000
 Cl5_A2_n436 Cl1-    0.738700    0.237100    0.870678    2.000000 Uiso  1.0000
 Cl6_A2_n436 Cl1-    0.261300    0.762900    0.870678    2.000000 Uiso  1.0000
 Li3_A2_n436 Li+    0.000000    0.500000    0.871000    2.000000 Uiso  0.2700
 Sc1_A2_n437 Sc3+    0.500000    0.000000    0.873000    2.000000 Uiso  1.0000
 Cl1_A2_n437 Cl1-    0.742100    0.768700    0.873000    2.000000 Uiso  1.0000
 Cl2_A2_n437 Cl1-    0.257900    0.231300    0.873000    2.000000 Uiso  1.0000
 Cl3_A2_n437 Cl1-    0.738700    0.237100    0.873322    2.000000 Uiso  1.0000
 Cl4_A2_n437 Cl1-    0.261300    0.762900    0.873322    2.000000 Uiso  1.0000
 Cl5_A2_n437 Cl1-    0.738700    0.237100    0.872678    2.000000 Uiso  1.0000
 Cl6_A2_n437 Cl1-    0.261300    0.762900    0.872678    2.000000 Uiso  1.0000
 Li3_A2_n437 Li+    0.000000    0.500000    0.873000    2.000000 Uiso  0.2700
 Sc1_A2_n438 Sc3+    0.500000    0.000000    0.875000    2.000000 Uiso  1.0000
 Cl1_A2_n438 Cl1-    0.742100    0.768700    0.875000    2.000000 Uiso  1.0000
 Cl2_A2_n438 Cl1-    0.257900    0.231300    0.875000    2.000000 Uiso  1.0000
 Cl3_A2_n438 Cl1-    0.738700    0.237100    0.875322    2.000000 Uiso  1.0000
 Cl4_A2_n438 Cl1-    0.261300    0.762900    0.875322    2.000000 Uiso  1.0000
 Cl5_A2_n438 Cl1-    0.738700    0.237100    0.874678    2.000000 Uiso  1.0000
 Cl6_A2_n438 Cl1-    0.261300    0.762900    0.874678    2.000000 Uiso  1.0000
 Li3_A2_n438 Li+    0.000000    0.500000    0.875000    2.000000 Uiso  0.2700
 Sc1_A2_n439 Sc3+    0.500000    0.000000    0.877000    2.000000 Uiso  1.0000
 Cl1_A2_n439 Cl1-    0.742100    0.768700    0.877000    2.000000 Uiso  1.0000
 Cl2_A2_n439 Cl1-    0.257900    0.231300    0.877000    2.000000 Uiso  1.0000
 Cl3_A2_n439 Cl1-    0.738700    0.237100    0.877322    2.000000 Uiso  1.0000
 Cl4_A2_n439 Cl1-    0.261300    0.762900    0.877322    2.000000 Uiso  1.0000
 Cl5_A2_n439 Cl1-    0.738700    0.237100    0.876678    2.000000 Uiso  1.0000
 Cl6_A2_n439 Cl1-    0.261300    0.762900    0.876678    2.000000 Uiso  1.0000
 Li3_A2_n439 Li+    0.000000    0.500000    0.877000    2.000000 Uiso  0.2700
 Sc1_A2_n440_fault Sc3+    0.500000    0.333330    0.879000    2.000000 Uiso  1.0000
 Cl1_A2_n440_fault Cl1-    0.742100    1.102030    0.879000    2.000000 Uiso  1.0000
 Cl2_A2_n440_fault Cl1-    0.257900    0.564630    0.879000    2.000000 Uiso  1.0000
 Cl3_A2_n440_fault Cl1-    0.738700    0.570430    0.879322    2.000000 Uiso  1.0000
 Cl4_A2_n440_fault Cl1-    0.261300    1.096230    0.879322    2.000000 Uiso  1.0000
 Cl5_A2_n440_fault Cl1-    0.738700    0.570430    0.878678    2.000000 Uiso  1.0000
 Cl6_A2_n440_fault Cl1-    0.261300    1.096230    0.878678    2.000000 Uiso  1.0000
 Li3_A2_n440_fault Li+    0.000000    0.833330    0.879000    2.000000 Uiso  0.2700
 Sc1_A2_n441 Sc3+    0.500000    0.000000    0.881000    2.000000 Uiso  1.0000
 Cl1_A2_n441 Cl1-    0.742100    0.768700    0.881000    2.000000 Uiso  1.0000
 Cl2_A2_n441 Cl1-    0.257900    0.231300    0.881000    2.000000 Uiso  1.0000
 Cl3_A2_n441 Cl1-    0.738700    0.237100    0.881322    2.000000 Uiso  1.0000
 Cl4_A2_n441 Cl1-    0.261300    0.762900    0.881322    2.000000 Uiso  1.0000
 Cl5_A2_n441 Cl1-    0.738700    0.237100    0.880678    2.000000 Uiso  1.0000
 Cl6_A2_n441 Cl1-    0.261300    0.762900    0.880678    2.000000 Uiso  1.0000
 Li3_A2_n441 Li+    0.000000    0.500000    0.881000    2.000000 Uiso  0.2700
 Sc1_A2_n442 Sc3+    0.500000    0.000000    0.883000    2.000000 Uiso  1.0000
 Cl1_A2_n442 Cl1-    0.742100    0.768700    0.883000    2.000000 Uiso  1.0000
 Cl2_A2_n442 Cl1-    0.257900    0.231300    0.883000    2.000000 Uiso  1.0000
 Cl3_A2_n442 Cl1-    0.738700    0.237100    0.883322    2.000000 Uiso  1.0000
 Cl4_A2_n442 Cl1-    0.261300    0.762900    0.883322    2.000000 Uiso  1.0000
 Cl5_A2_n442 Cl1-    0.738700    0.237100    0.882678    2.000000 Uiso  1.0000
 Cl6_A2_n442 Cl1-    0.261300    0.762900    0.882678    2.000000 Uiso  1.0000
 Li3_A2_n442 Li+    0.000000    0.500000    0.883000    2.000000 Uiso  0.2700
 Sc1_A2_n443 Sc3+    0.500000    0.000000    0.885000    2.000000 Uiso  1.0000
 Cl1_A2_n443 Cl1-    0.742100    0.768700    0.885000    2.000000 Uiso  1.0000
 Cl2_A2_n443 Cl1-    0.257900    0.231300    0.885000    2.000000 Uiso  1.0000
 Cl3_A2_n443 Cl1-    0.738700    0.237100    0.885322    2.000000 Uiso  1.0000
 Cl4_A2_n443 Cl1-    0.261300    0.762900    0.885322    2.000000 Uiso  1.0000
 Cl5_A2_n443 Cl1-    0.738700    0.237100    0.884678    2.000000 Uiso  1.0000
 Cl6_A2_n443 Cl1-    0.261300    0.762900    0.884678    2.000000 Uiso  1.0000
 Li3_A2_n443 Li+    0.000000    0.500000    0.885000    2.000000 Uiso  0.2700
 Sc1_A2_n444 Sc3+    0.500000    0.000000    0.887000    2.000000 Uiso  1.0000
 Cl1_A2_n444 Cl1-    0.742100    0.768700    0.887000    2.000000 Uiso  1.0000
 Cl2_A2_n444 Cl1-    0.257900    0.231300    0.887000    2.000000 Uiso  1.0000
 Cl3_A2_n444 Cl1-    0.738700    0.237100    0.887322    2.000000 Uiso  1.0000
 Cl4_A2_n444 Cl1-    0.261300    0.762900    0.887322    2.000000 Uiso  1.0000
 Cl5_A2_n444 Cl1-    0.738700    0.237100    0.886678    2.000000 Uiso  1.0000
 Cl6_A2_n444 Cl1-    0.261300    0.762900    0.886678    2.000000 Uiso  1.0000
 Li3_A2_n444 Li+    0.000000    0.500000    0.887000    2.000000 Uiso  0.2700
 Sc1_A2_n445 Sc3+    0.500000    0.000000    0.889000    2.000000 Uiso  1.0000
 Cl1_A2_n445 Cl1-    0.742100    0.768700    0.889000    2.000000 Uiso  1.0000
 Cl2_A2_n445 Cl1-    0.257900    0.231300    0.889000    2.000000 Uiso  1.0000
 Cl3_A2_n445 Cl1-    0.738700    0.237100    0.889322    2.000000 Uiso  1.0000
 Cl4_A2_n445 Cl1-    0.261300    0.762900    0.889322    2.000000 Uiso  1.0000
 Cl5_A2_n445 Cl1-    0.738700    0.237100    0.888678    2.000000 Uiso  1.0000
 Cl6_A2_n445 Cl1-    0.261300    0.762900    0.888678    2.000000 Uiso  1.0000
 Li3_A2_n445 Li+    0.000000    0.500000    0.889000    2.000000 Uiso  0.2700
 Sc1_A2_n446 Sc3+    0.500000    0.000000    0.891000    2.000000 Uiso  1.0000
 Cl1_A2_n446 Cl1-    0.742100    0.768700    0.891000    2.000000 Uiso  1.0000
 Cl2_A2_n446 Cl1-    0.257900    0.231300    0.891000    2.000000 Uiso  1.0000
 Cl3_A2_n446 Cl1-    0.738700    0.237100    0.891322    2.000000 Uiso  1.0000
 Cl4_A2_n446 Cl1-    0.261300    0.762900    0.891322    2.000000 Uiso  1.0000
 Cl5_A2_n446 Cl1-    0.738700    0.237100    0.890678    2.000000 Uiso  1.0000
 Cl6_A2_n446 Cl1-    0.261300    0.762900    0.890678    2.000000 Uiso  1.0000
 Li3_A2_n446 Li+    0.000000    0.500000    0.891000    2.000000 Uiso  0.2700
 Sc1_A2_n447 Sc3+    0.500000    0.000000    0.893000    2.000000 Uiso  1.0000
 Cl1_A2_n447 Cl1-    0.742100    0.768700    0.893000    2.000000 Uiso  1.0000
 Cl2_A2_n447 Cl1-    0.257900    0.231300    0.893000    2.000000 Uiso  1.0000
 Cl3_A2_n447 Cl1-    0.738700    0.237100    0.893322    2.000000 Uiso  1.0000
 Cl4_A2_n447 Cl1-    0.261300    0.762900    0.893322    2.000000 Uiso  1.0000
 Cl5_A2_n447 Cl1-    0.738700    0.237100    0.892678    2.000000 Uiso  1.0000
 Cl6_A2_n447 Cl1-    0.261300    0.762900    0.892678    2.000000 Uiso  1.0000
 Li3_A2_n447 Li+    0.000000    0.500000    0.893000    2.000000 Uiso  0.2700
 Sc1_A2_n448 Sc3+    0.500000    0.000000    0.895000    2.000000 Uiso  1.0000
 Cl1_A2_n448 Cl1-    0.742100    0.768700    0.895000    2.000000 Uiso  1.0000
 Cl2_A2_n448 Cl1-    0.257900    0.231300    0.895000    2.000000 Uiso  1.0000
 Cl3_A2_n448 Cl1-    0.738700    0.237100    0.895322    2.000000 Uiso  1.0000
 Cl4_A2_n448 Cl1-    0.261300    0.762900    0.895322    2.000000 Uiso  1.0000
 Cl5_A2_n448 Cl1-    0.738700    0.237100    0.894678    2.000000 Uiso  1.0000
 Cl6_A2_n448 Cl1-    0.261300    0.762900    0.894678    2.000000 Uiso  1.0000
 Li3_A2_n448 Li+    0.000000    0.500000    0.895000    2.000000 Uiso  0.2700
 Sc1_A2_n449 Sc3+    0.500000    0.000000    0.897000    2.000000 Uiso  1.0000
 Cl1_A2_n449 Cl1-    0.742100    0.768700    0.897000    2.000000 Uiso  1.0000
 Cl2_A2_n449 Cl1-    0.257900    0.231300    0.897000    2.000000 Uiso  1.0000
 Cl3_A2_n449 Cl1-    0.738700    0.237100    0.897322    2.000000 Uiso  1.0000
 Cl4_A2_n449 Cl1-    0.261300    0.762900    0.897322    2.000000 Uiso  1.0000
 Cl5_A2_n449 Cl1-    0.738700    0.237100    0.896678    2.000000 Uiso  1.0000
 Cl6_A2_n449 Cl1-    0.261300    0.762900    0.896678    2.000000 Uiso  1.0000
 Li3_A2_n449 Li+    0.000000    0.500000    0.897000    2.000000 Uiso  0.2700
 Sc1_A2_n450 Sc3+    0.500000    0.000000    0.899000    2.000000 Uiso  1.0000
 Cl1_A2_n450 Cl1-    0.742100    0.768700    0.899000    2.000000 Uiso  1.0000
 Cl2_A2_n450 Cl1-    0.257900    0.231300    0.899000    2.000000 Uiso  1.0000
 Cl3_A2_n450 Cl1-    0.738700    0.237100    0.899322    2.000000 Uiso  1.0000
 Cl4_A2_n450 Cl1-    0.261300    0.762900    0.899322    2.000000 Uiso  1.0000
 Cl5_A2_n450 Cl1-    0.738700    0.237100    0.898678    2.000000 Uiso  1.0000
 Cl6_A2_n450 Cl1-    0.261300    0.762900    0.898678    2.000000 Uiso  1.0000
 Li3_A2_n450 Li+    0.000000    0.500000    0.899000    2.000000 Uiso  0.2700
 Sc1_A2_n451 Sc3+    0.500000    0.000000    0.901000    2.000000 Uiso  1.0000
 Cl1_A2_n451 Cl1-    0.742100    0.768700    0.901000    2.000000 Uiso  1.0000
 Cl2_A2_n451 Cl1-    0.257900    0.231300    0.901000    2.000000 Uiso  1.0000
 Cl3_A2_n451 Cl1-    0.738700    0.237100    0.901322    2.000000 Uiso  1.0000
 Cl4_A2_n451 Cl1-    0.261300    0.762900    0.901322    2.000000 Uiso  1.0000
 Cl5_A2_n451 Cl1-    0.738700    0.237100    0.900678    2.000000 Uiso  1.0000
 Cl6_A2_n451 Cl1-    0.261300    0.762900    0.900678    2.000000 Uiso  1.0000
 Li3_A2_n451 Li+    0.000000    0.500000    0.901000    2.000000 Uiso  0.2700
 Sc1_A2_n452 Sc3+    0.500000    0.000000    0.903000    2.000000 Uiso  1.0000
 Cl1_A2_n452 Cl1-    0.742100    0.768700    0.903000    2.000000 Uiso  1.0000
 Cl2_A2_n452 Cl1-    0.257900    0.231300    0.903000    2.000000 Uiso  1.0000
 Cl3_A2_n452 Cl1-    0.738700    0.237100    0.903322    2.000000 Uiso  1.0000
 Cl4_A2_n452 Cl1-    0.261300    0.762900    0.903322    2.000000 Uiso  1.0000
 Cl5_A2_n452 Cl1-    0.738700    0.237100    0.902678    2.000000 Uiso  1.0000
 Cl6_A2_n452 Cl1-    0.261300    0.762900    0.902678    2.000000 Uiso  1.0000
 Li3_A2_n452 Li+    0.000000    0.500000    0.903000    2.000000 Uiso  0.2700
 Sc1_A2_n453 Sc3+    0.500000    0.000000    0.905000    2.000000 Uiso  1.0000
 Cl1_A2_n453 Cl1-    0.742100    0.768700    0.905000    2.000000 Uiso  1.0000
 Cl2_A2_n453 Cl1-    0.257900    0.231300    0.905000    2.000000 Uiso  1.0000
 Cl3_A2_n453 Cl1-    0.738700    0.237100    0.905322    2.000000 Uiso  1.0000
 Cl4_A2_n453 Cl1-    0.261300    0.762900    0.905322    2.000000 Uiso  1.0000
 Cl5_A2_n453 Cl1-    0.738700    0.237100    0.904678    2.000000 Uiso  1.0000
 Cl6_A2_n453 Cl1-    0.261300    0.762900    0.904678    2.000000 Uiso  1.0000
 Li3_A2_n453 Li+    0.000000    0.500000    0.905000    2.000000 Uiso  0.2700
 Sc1_A2_n454 Sc3+    0.500000    0.000000    0.907000    2.000000 Uiso  1.0000
 Cl1_A2_n454 Cl1-    0.742100    0.768700    0.907000    2.000000 Uiso  1.0000
 Cl2_A2_n454 Cl1-    0.257900    0.231300    0.907000    2.000000 Uiso  1.0000
 Cl3_A2_n454 Cl1-    0.738700    0.237100    0.907322    2.000000 Uiso  1.0000
 Cl4_A2_n454 Cl1-    0.261300    0.762900    0.907322    2.000000 Uiso  1.0000
 Cl5_A2_n454 Cl1-    0.738700    0.237100    0.906678    2.000000 Uiso  1.0000
 Cl6_A2_n454 Cl1-    0.261300    0.762900    0.906678    2.000000 Uiso  1.0000
 Li3_A2_n454 Li+    0.000000    0.500000    0.907000    2.000000 Uiso  0.2700
 Sc1_A2_n455_fault Sc3+    0.500000    0.333330    0.909000    2.000000 Uiso  1.0000
 Cl1_A2_n455_fault Cl1-    0.742100    1.102030    0.909000    2.000000 Uiso  1.0000
 Cl2_A2_n455_fault Cl1-    0.257900    0.564630    0.909000    2.000000 Uiso  1.0000
 Cl3_A2_n455_fault Cl1-    0.738700    0.570430    0.909322    2.000000 Uiso  1.0000
 Cl4_A2_n455_fault Cl1-    0.261300    1.096230    0.909322    2.000000 Uiso  1.0000
 Cl5_A2_n455_fault Cl1-    0.738700    0.570430    0.908678    2.000000 Uiso  1.0000
 Cl6_A2_n455_fault Cl1-    0.261300    1.096230    0.908678    2.000000 Uiso  1.0000
 Li3_A2_n455_fault Li+    0.000000    0.833330    0.909000    2.000000 Uiso  0.2700
 Sc1_A2_n456 Sc3+    0.500000    0.000000    0.911000    2.000000 Uiso  1.0000
 Cl1_A2_n456 Cl1-    0.742100    0.768700    0.911000    2.000000 Uiso  1.0000
 Cl2_A2_n456 Cl1-    0.257900    0.231300    0.911000    2.000000 Uiso  1.0000
 Cl3_A2_n456 Cl1-    0.738700    0.237100    0.911322    2.000000 Uiso  1.0000
 Cl4_A2_n456 Cl1-    0.261300    0.762900    0.911322    2.000000 Uiso  1.0000
 Cl5_A2_n456 Cl1-    0.738700    0.237100    0.910678    2.000000 Uiso  1.0000
 Cl6_A2_n456 Cl1-    0.261300    0.762900    0.910678    2.000000 Uiso  1.0000
 Li3_A2_n456 Li+    0.000000    0.500000    0.911000    2.000000 Uiso  0.2700
 Sc1_A2_n457 Sc3+    0.500000    0.000000    0.913000    2.000000 Uiso  1.0000
 Cl1_A2_n457 Cl1-    0.742100    0.768700    0.913000    2.000000 Uiso  1.0000
 Cl2_A2_n457 Cl1-    0.257900    0.231300    0.913000    2.000000 Uiso  1.0000
 Cl3_A2_n457 Cl1-    0.738700    0.237100    0.913322    2.000000 Uiso  1.0000
 Cl4_A2_n457 Cl1-    0.261300    0.762900    0.913322    2.000000 Uiso  1.0000
 Cl5_A2_n457 Cl1-    0.738700    0.237100    0.912678    2.000000 Uiso  1.0000
 Cl6_A2_n457 Cl1-    0.261300    0.762900    0.912678    2.000000 Uiso  1.0000
 Li3_A2_n457 Li+    0.000000    0.500000    0.913000    2.000000 Uiso  0.2700
 Sc1_A2_n458_fault Sc3+    0.500000    0.333330    0.915000    2.000000 Uiso  1.0000
 Cl1_A2_n458_fault Cl1-    0.742100    1.102030    0.915000    2.000000 Uiso  1.0000
 Cl2_A2_n458_fault Cl1-    0.257900    0.564630    0.915000    2.000000 Uiso  1.0000
 Cl3_A2_n458_fault Cl1-    0.738700    0.570430    0.915322    2.000000 Uiso  1.0000
 Cl4_A2_n458_fault Cl1-    0.261300    1.096230    0.915322    2.000000 Uiso  1.0000
 Cl5_A2_n458_fault Cl1-    0.738700    0.570430    0.914678    2.000000 Uiso  1.0000
 Cl6_A2_n458_fault Cl1-    0.261300    1.096230    0.914678    2.000000 Uiso  1.0000
 Li3_A2_n458_fault Li+    0.000000    0.833330    0.915000    2.000000 Uiso  0.2700
 Sc1_A2_n459 Sc3+    0.500000    0.000000    0.917000    2.000000 Uiso  1.0000
 Cl1_A2_n459 Cl1-    0.742100    0.768700    0.917000    2.000000 Uiso  1.0000
 Cl2_A2_n459 Cl1-    0.257900    0.231300    0.917000    2.000000 Uiso  1.0000
 Cl3_A2_n459 Cl1-    0.738700    0.237100    0.917322    2.000000 Uiso  1.0000
 Cl4_A2_n459 Cl1-    0.261300    0.762900    0.917322    2.000000 Uiso  1.0000
 Cl5_A2_n459 Cl1-    0.738700    0.237100    0.916678    2.000000 Uiso  1.0000
 Cl6_A2_n459 Cl1-    0.261300    0.762900    0.916678    2.000000 Uiso  1.0000
 Li3_A2_n459 Li+    0.000000    0.500000    0.917000    2.000000 Uiso  0.2700
 Sc1_A2_n460 Sc3+    0.500000    0.000000    0.919000    2.000000 Uiso  1.0000
 Cl1_A2_n460 Cl1-    0.742100    0.768700    0.919000    2.000000 Uiso  1.0000
 Cl2_A2_n460 Cl1-    0.257900    0.231300    0.919000    2.000000 Uiso  1.0000
 Cl3_A2_n460 Cl1-    0.738700    0.237100    0.919322    2.000000 Uiso  1.0000
 Cl4_A2_n460 Cl1-    0.261300    0.762900    0.919322    2.000000 Uiso  1.0000
 Cl5_A2_n460 Cl1-    0.738700    0.237100    0.918678    2.000000 Uiso  1.0000
 Cl6_A2_n460 Cl1-    0.261300    0.762900    0.918678    2.000000 Uiso  1.0000
 Li3_A2_n460 Li+    0.000000    0.500000    0.919000    2.000000 Uiso  0.2700
 Sc1_A2_n461 Sc3+    0.500000    0.000000    0.921000    2.000000 Uiso  1.0000
 Cl1_A2_n461 Cl1-    0.742100    0.768700    0.921000    2.000000 Uiso  1.0000
 Cl2_A2_n461 Cl1-    0.257900    0.231300    0.921000    2.000000 Uiso  1.0000
 Cl3_A2_n461 Cl1-    0.738700    0.237100    0.921322    2.000000 Uiso  1.0000
 Cl4_A2_n461 Cl1-    0.261300    0.762900    0.921322    2.000000 Uiso  1.0000
 Cl5_A2_n461 Cl1-    0.738700    0.237100    0.920678    2.000000 Uiso  1.0000
 Cl6_A2_n461 Cl1-    0.261300    0.762900    0.920678    2.000000 Uiso  1.0000
 Li3_A2_n461 Li+    0.000000    0.500000    0.921000    2.000000 Uiso  0.2700
 Sc1_A2_n462 Sc3+    0.500000    0.000000    0.923000    2.000000 Uiso  1.0000
 Cl1_A2_n462 Cl1-    0.742100    0.768700    0.923000    2.000000 Uiso  1.0000
 Cl2_A2_n462 Cl1-    0.257900    0.231300    0.923000    2.000000 Uiso  1.0000
 Cl3_A2_n462 Cl1-    0.738700    0.237100    0.923322    2.000000 Uiso  1.0000
 Cl4_A2_n462 Cl1-    0.261300    0.762900    0.923322    2.000000 Uiso  1.0000
 Cl5_A2_n462 Cl1-    0.738700    0.237100    0.922678    2.000000 Uiso  1.0000
 Cl6_A2_n462 Cl1-    0.261300    0.762900    0.922678    2.000000 Uiso  1.0000
 Li3_A2_n462 Li+    0.000000    0.500000    0.923000    2.000000 Uiso  0.2700
 Sc1_A2_n463 Sc3+    0.500000    0.000000    0.925000    2.000000 Uiso  1.0000
 Cl1_A2_n463 Cl1-    0.742100    0.768700    0.925000    2.000000 Uiso  1.0000
 Cl2_A2_n463 Cl1-    0.257900    0.231300    0.925000    2.000000 Uiso  1.0000
 Cl3_A2_n463 Cl1-    0.738700    0.237100    0.925322    2.000000 Uiso  1.0000
 Cl4_A2_n463 Cl1-    0.261300    0.762900    0.925322    2.000000 Uiso  1.0000
 Cl5_A2_n463 Cl1-    0.738700    0.237100    0.924678    2.000000 Uiso  1.0000
 Cl6_A2_n463 Cl1-    0.261300    0.762900    0.924678    2.000000 Uiso  1.0000
 Li3_A2_n463 Li+    0.000000    0.500000    0.925000    2.000000 Uiso  0.2700
 Sc1_A2_n464 Sc3+    0.500000    0.000000    0.927000    2.000000 Uiso  1.0000
 Cl1_A2_n464 Cl1-    0.742100    0.768700    0.927000    2.000000 Uiso  1.0000
 Cl2_A2_n464 Cl1-    0.257900    0.231300    0.927000    2.000000 Uiso  1.0000
 Cl3_A2_n464 Cl1-    0.738700    0.237100    0.927322    2.000000 Uiso  1.0000
 Cl4_A2_n464 Cl1-    0.261300    0.762900    0.927322    2.000000 Uiso  1.0000
 Cl5_A2_n464 Cl1-    0.738700    0.237100    0.926678    2.000000 Uiso  1.0000
 Cl6_A2_n464 Cl1-    0.261300    0.762900    0.926678    2.000000 Uiso  1.0000
 Li3_A2_n464 Li+    0.000000    0.500000    0.927000    2.000000 Uiso  0.2700
 Sc1_A2_n465 Sc3+    0.500000    0.000000    0.929000    2.000000 Uiso  1.0000
 Cl1_A2_n465 Cl1-    0.742100    0.768700    0.929000    2.000000 Uiso  1.0000
 Cl2_A2_n465 Cl1-    0.257900    0.231300    0.929000    2.000000 Uiso  1.0000
 Cl3_A2_n465 Cl1-    0.738700    0.237100    0.929322    2.000000 Uiso  1.0000
 Cl4_A2_n465 Cl1-    0.261300    0.762900    0.929322    2.000000 Uiso  1.0000
 Cl5_A2_n465 Cl1-    0.738700    0.237100    0.928678    2.000000 Uiso  1.0000
 Cl6_A2_n465 Cl1-    0.261300    0.762900    0.928678    2.000000 Uiso  1.0000
 Li3_A2_n465 Li+    0.000000    0.500000    0.929000    2.000000 Uiso  0.2700
 Sc1_A2_n466 Sc3+    0.500000    0.000000    0.931000    2.000000 Uiso  1.0000
 Cl1_A2_n466 Cl1-    0.742100    0.768700    0.931000    2.000000 Uiso  1.0000
 Cl2_A2_n466 Cl1-    0.257900    0.231300    0.931000    2.000000 Uiso  1.0000
 Cl3_A2_n466 Cl1-    0.738700    0.237100    0.931322    2.000000 Uiso  1.0000
 Cl4_A2_n466 Cl1-    0.261300    0.762900    0.931322    2.000000 Uiso  1.0000
 Cl5_A2_n466 Cl1-    0.738700    0.237100    0.930678    2.000000 Uiso  1.0000
 Cl6_A2_n466 Cl1-    0.261300    0.762900    0.930678    2.000000 Uiso  1.0000
 Li3_A2_n466 Li+    0.000000    0.500000    0.931000    2.000000 Uiso  0.2700
 Sc1_A2_n467 Sc3+    0.500000    0.000000    0.933000    2.000000 Uiso  1.0000
 Cl1_A2_n467 Cl1-    0.742100    0.768700    0.933000    2.000000 Uiso  1.0000
 Cl2_A2_n467 Cl1-    0.257900    0.231300    0.933000    2.000000 Uiso  1.0000
 Cl3_A2_n467 Cl1-    0.738700    0.237100    0.933322    2.000000 Uiso  1.0000
 Cl4_A2_n467 Cl1-    0.261300    0.762900    0.933322    2.000000 Uiso  1.0000
 Cl5_A2_n467 Cl1-    0.738700    0.237100    0.932678    2.000000 Uiso  1.0000
 Cl6_A2_n467 Cl1-    0.261300    0.762900    0.932678    2.000000 Uiso  1.0000
 Li3_A2_n467 Li+    0.000000    0.500000    0.933000    2.000000 Uiso  0.2700
 Sc1_A2_n468 Sc3+    0.500000    0.000000    0.935000    2.000000 Uiso  1.0000
 Cl1_A2_n468 Cl1-    0.742100    0.768700    0.935000    2.000000 Uiso  1.0000
 Cl2_A2_n468 Cl1-    0.257900    0.231300    0.935000    2.000000 Uiso  1.0000
 Cl3_A2_n468 Cl1-    0.738700    0.237100    0.935322    2.000000 Uiso  1.0000
 Cl4_A2_n468 Cl1-    0.261300    0.762900    0.935322    2.000000 Uiso  1.0000
 Cl5_A2_n468 Cl1-    0.738700    0.237100    0.934678    2.000000 Uiso  1.0000
 Cl6_A2_n468 Cl1-    0.261300    0.762900    0.934678    2.000000 Uiso  1.0000
 Li3_A2_n468 Li+    0.000000    0.500000    0.935000    2.000000 Uiso  0.2700
 Sc1_A2_n469 Sc3+    0.500000    0.000000    0.937000    2.000000 Uiso  1.0000
 Cl1_A2_n469 Cl1-    0.742100    0.768700    0.937000    2.000000 Uiso  1.0000
 Cl2_A2_n469 Cl1-    0.257900    0.231300    0.937000    2.000000 Uiso  1.0000
 Cl3_A2_n469 Cl1-    0.738700    0.237100    0.937322    2.000000 Uiso  1.0000
 Cl4_A2_n469 Cl1-    0.261300    0.762900    0.937322    2.000000 Uiso  1.0000
 Cl5_A2_n469 Cl1-    0.738700    0.237100    0.936678    2.000000 Uiso  1.0000
 Cl6_A2_n469 Cl1-    0.261300    0.762900    0.936678    2.000000 Uiso  1.0000
 Li3_A2_n469 Li+    0.000000    0.500000    0.937000    2.000000 Uiso  0.2700
 Sc1_A2_n470 Sc3+    0.500000    0.000000    0.939000    2.000000 Uiso  1.0000
 Cl1_A2_n470 Cl1-    0.742100    0.768700    0.939000    2.000000 Uiso  1.0000
 Cl2_A2_n470 Cl1-    0.257900    0.231300    0.939000    2.000000 Uiso  1.0000
 Cl3_A2_n470 Cl1-    0.738700    0.237100    0.939322    2.000000 Uiso  1.0000
 Cl4_A2_n470 Cl1-    0.261300    0.762900    0.939322    2.000000 Uiso  1.0000
 Cl5_A2_n470 Cl1-    0.738700    0.237100    0.938678    2.000000 Uiso  1.0000
 Cl6_A2_n470 Cl1-    0.261300    0.762900    0.938678    2.000000 Uiso  1.0000
 Li3_A2_n470 Li+    0.000000    0.500000    0.939000    2.000000 Uiso  0.2700
 Sc1_A2_n471 Sc3+    0.500000    0.000000    0.941000    2.000000 Uiso  1.0000
 Cl1_A2_n471 Cl1-    0.742100    0.768700    0.941000    2.000000 Uiso  1.0000
 Cl2_A2_n471 Cl1-    0.257900    0.231300    0.941000    2.000000 Uiso  1.0000
 Cl3_A2_n471 Cl1-    0.738700    0.237100    0.941322    2.000000 Uiso  1.0000
 Cl4_A2_n471 Cl1-    0.261300    0.762900    0.941322    2.000000 Uiso  1.0000
 Cl5_A2_n471 Cl1-    0.738700    0.237100    0.940678    2.000000 Uiso  1.0000
 Cl6_A2_n471 Cl1-    0.261300    0.762900    0.940678    2.000000 Uiso  1.0000
 Li3_A2_n471 Li+    0.000000    0.500000    0.941000    2.000000 Uiso  0.2700
 Sc1_A2_n472 Sc3+    0.500000    0.000000    0.943000    2.000000 Uiso  1.0000
 Cl1_A2_n472 Cl1-    0.742100    0.768700    0.943000    2.000000 Uiso  1.0000
 Cl2_A2_n472 Cl1-    0.257900    0.231300    0.943000    2.000000 Uiso  1.0000
 Cl3_A2_n472 Cl1-    0.738700    0.237100    0.943322    2.000000 Uiso  1.0000
 Cl4_A2_n472 Cl1-    0.261300    0.762900    0.943322    2.000000 Uiso  1.0000
 Cl5_A2_n472 Cl1-    0.738700    0.237100    0.942678    2.000000 Uiso  1.0000
 Cl6_A2_n472 Cl1-    0.261300    0.762900    0.942678    2.000000 Uiso  1.0000
 Li3_A2_n472 Li+    0.000000    0.500000    0.943000    2.000000 Uiso  0.2700
 Sc1_A2_n473 Sc3+    0.500000    0.000000    0.945000    2.000000 Uiso  1.0000
 Cl1_A2_n473 Cl1-    0.742100    0.768700    0.945000    2.000000 Uiso  1.0000
 Cl2_A2_n473 Cl1-    0.257900    0.231300    0.945000    2.000000 Uiso  1.0000
 Cl3_A2_n473 Cl1-    0.738700    0.237100    0.945322    2.000000 Uiso  1.0000
 Cl4_A2_n473 Cl1-    0.261300    0.762900    0.945322    2.000000 Uiso  1.0000
 Cl5_A2_n473 Cl1-    0.738700    0.237100    0.944678    2.000000 Uiso  1.0000
 Cl6_A2_n473 Cl1-    0.261300    0.762900    0.944678    2.000000 Uiso  1.0000
 Li3_A2_n473 Li+    0.000000    0.500000    0.945000    2.000000 Uiso  0.2700
 Sc1_A2_n474_fault Sc3+    0.500000    0.333330    0.947000    2.000000 Uiso  1.0000
 Cl1_A2_n474_fault Cl1-    0.742100    1.102030    0.947000    2.000000 Uiso  1.0000
 Cl2_A2_n474_fault Cl1-    0.257900    0.564630    0.947000    2.000000 Uiso  1.0000
 Cl3_A2_n474_fault Cl1-    0.738700    0.570430    0.947322    2.000000 Uiso  1.0000
 Cl4_A2_n474_fault Cl1-    0.261300    1.096230    0.947322    2.000000 Uiso  1.0000
 Cl5_A2_n474_fault Cl1-    0.738700    0.570430    0.946678    2.000000 Uiso  1.0000
 Cl6_A2_n474_fault Cl1-    0.261300    1.096230    0.946678    2.000000 Uiso  1.0000
 Li3_A2_n474_fault Li+    0.000000    0.833330    0.947000    2.000000 Uiso  0.2700
 Sc1_A2_n475 Sc3+    0.500000    0.000000    0.949000    2.000000 Uiso  1.0000
 Cl1_A2_n475 Cl1-    0.742100    0.768700    0.949000    2.000000 Uiso  1.0000
 Cl2_A2_n475 Cl1-    0.257900    0.231300    0.949000    2.000000 Uiso  1.0000
 Cl3_A2_n475 Cl1-    0.738700    0.237100    0.949322    2.000000 Uiso  1.0000
 Cl4_A2_n475 Cl1-    0.261300    0.762900    0.949322    2.000000 Uiso  1.0000
 Cl5_A2_n475 Cl1-    0.738700    0.237100    0.948678    2.000000 Uiso  1.0000
 Cl6_A2_n475 Cl1-    0.261300    0.762900    0.948678    2.000000 Uiso  1.0000
 Li3_A2_n475 Li+    0.000000    0.500000    0.949000    2.000000 Uiso  0.2700
 Sc1_A2_n476 Sc3+    0.500000    0.000000    0.951000    2.000000 Uiso  1.0000
 Cl1_A2_n476 Cl1-    0.742100    0.768700    0.951000    2.000000 Uiso  1.0000
 Cl2_A2_n476 Cl1-    0.257900    0.231300    0.951000    2.000000 Uiso  1.0000
 Cl3_A2_n476 Cl1-    0.738700    0.237100    0.951322    2.000000 Uiso  1.0000
 Cl4_A2_n476 Cl1-    0.261300    0.762900    0.951322    2.000000 Uiso  1.0000
 Cl5_A2_n476 Cl1-    0.738700    0.237100    0.950678    2.000000 Uiso  1.0000
 Cl6_A2_n476 Cl1-    0.261300    0.762900    0.950678    2.000000 Uiso  1.0000
 Li3_A2_n476 Li+    0.000000    0.500000    0.951000    2.000000 Uiso  0.2700
 Sc1_A2_n477 Sc3+    0.500000    0.000000    0.953000    2.000000 Uiso  1.0000
 Cl1_A2_n477 Cl1-    0.742100    0.768700    0.953000    2.000000 Uiso  1.0000
 Cl2_A2_n477 Cl1-    0.257900    0.231300    0.953000    2.000000 Uiso  1.0000
 Cl3_A2_n477 Cl1-    0.738700    0.237100    0.953322    2.000000 Uiso  1.0000
 Cl4_A2_n477 Cl1-    0.261300    0.762900    0.953322    2.000000 Uiso  1.0000
 Cl5_A2_n477 Cl1-    0.738700    0.237100    0.952678    2.000000 Uiso  1.0000
 Cl6_A2_n477 Cl1-    0.261300    0.762900    0.952678    2.000000 Uiso  1.0000
 Li3_A2_n477 Li+    0.000000    0.500000    0.953000    2.000000 Uiso  0.2700
 Sc1_A2_n478 Sc3+    0.500000    0.000000    0.955000    2.000000 Uiso  1.0000
 Cl1_A2_n478 Cl1-    0.742100    0.768700    0.955000    2.000000 Uiso  1.0000
 Cl2_A2_n478 Cl1-    0.257900    0.231300    0.955000    2.000000 Uiso  1.0000
 Cl3_A2_n478 Cl1-    0.738700    0.237100    0.955322    2.000000 Uiso  1.0000
 Cl4_A2_n478 Cl1-    0.261300    0.762900    0.955322    2.000000 Uiso  1.0000
 Cl5_A2_n478 Cl1-    0.738700    0.237100    0.954678    2.000000 Uiso  1.0000
 Cl6_A2_n478 Cl1-    0.261300    0.762900    0.954678    2.000000 Uiso  1.0000
 Li3_A2_n478 Li+    0.000000    0.500000    0.955000    2.000000 Uiso  0.2700
 Sc1_A2_n479 Sc3+    0.500000    0.000000    0.957000    2.000000 Uiso  1.0000
 Cl1_A2_n479 Cl1-    0.742100    0.768700    0.957000    2.000000 Uiso  1.0000
 Cl2_A2_n479 Cl1-    0.257900    0.231300    0.957000    2.000000 Uiso  1.0000
 Cl3_A2_n479 Cl1-    0.738700    0.237100    0.957322    2.000000 Uiso  1.0000
 Cl4_A2_n479 Cl1-    0.261300    0.762900    0.957322    2.000000 Uiso  1.0000
 Cl5_A2_n479 Cl1-    0.738700    0.237100    0.956678    2.000000 Uiso  1.0000
 Cl6_A2_n479 Cl1-    0.261300    0.762900    0.956678    2.000000 Uiso  1.0000
 Li3_A2_n479 Li+    0.000000    0.500000    0.957000    2.000000 Uiso  0.2700
 Sc1_A2_n480 Sc3+    0.500000    0.000000    0.959000    2.000000 Uiso  1.0000
 Cl1_A2_n480 Cl1-    0.742100    0.768700    0.959000    2.000000 Uiso  1.0000
 Cl2_A2_n480 Cl1-    0.257900    0.231300    0.959000    2.000000 Uiso  1.0000
 Cl3_A2_n480 Cl1-    0.738700    0.237100    0.959322    2.000000 Uiso  1.0000
 Cl4_A2_n480 Cl1-    0.261300    0.762900    0.959322    2.000000 Uiso  1.0000
 Cl5_A2_n480 Cl1-    0.738700    0.237100    0.958678    2.000000 Uiso  1.0000
 Cl6_A2_n480 Cl1-    0.261300    0.762900    0.958678    2.000000 Uiso  1.0000
 Li3_A2_n480 Li+    0.000000    0.500000    0.959000    2.000000 Uiso  0.2700
 Sc1_A2_n481_fault Sc3+    0.500000    0.333330    0.961000    2.000000 Uiso  1.0000
 Cl1_A2_n481_fault Cl1-    0.742100    1.102030    0.961000    2.000000 Uiso  1.0000
 Cl2_A2_n481_fault Cl1-    0.257900    0.564630    0.961000    2.000000 Uiso  1.0000
 Cl3_A2_n481_fault Cl1-    0.738700    0.570430    0.961322    2.000000 Uiso  1.0000
 Cl4_A2_n481_fault Cl1-    0.261300    1.096230    0.961322    2.000000 Uiso  1.0000
 Cl5_A2_n481_fault Cl1-    0.738700    0.570430    0.960678    2.000000 Uiso  1.0000
 Cl6_A2_n481_fault Cl1-    0.261300    1.096230    0.960678    2.000000 Uiso  1.0000
 Li3_A2_n481_fault Li+    0.000000    0.833330    0.961000    2.000000 Uiso  0.2700
 Sc1_A2_n482_fault Sc3+    0.500000    0.333330    0.963000    2.000000 Uiso  1.0000
 Cl1_A2_n482_fault Cl1-    0.742100    1.102030    0.963000    2.000000 Uiso  1.0000
 Cl2_A2_n482_fault Cl1-    0.257900    0.564630    0.963000    2.000000 Uiso  1.0000
 Cl3_A2_n482_fault Cl1-    0.738700    0.570430    0.963322    2.000000 Uiso  1.0000
 Cl4_A2_n482_fault Cl1-    0.261300    1.096230    0.963322    2.000000 Uiso  1.0000
 Cl5_A2_n482_fault Cl1-    0.738700    0.570430    0.962678    2.000000 Uiso  1.0000
 Cl6_A2_n482_fault Cl1-    0.261300    1.096230    0.962678    2.000000 Uiso  1.0000
 Li3_A2_n482_fault Li+    0.000000    0.833330    0.963000    2.000000 Uiso  0.2700
 Sc1_A2_n483 Sc3+    0.500000    0.000000    0.965000    2.000000 Uiso  1.0000
 Cl1_A2_n483 Cl1-    0.742100    0.768700    0.965000    2.000000 Uiso  1.0000
 Cl2_A2_n483 Cl1-    0.257900    0.231300    0.965000    2.000000 Uiso  1.0000
 Cl3_A2_n483 Cl1-    0.738700    0.237100    0.965322    2.000000 Uiso  1.0000
 Cl4_A2_n483 Cl1-    0.261300    0.762900    0.965322    2.000000 Uiso  1.0000
 Cl5_A2_n483 Cl1-    0.738700    0.237100    0.964678    2.000000 Uiso  1.0000
 Cl6_A2_n483 Cl1-    0.261300    0.762900    0.964678    2.000000 Uiso  1.0000
 Li3_A2_n483 Li+    0.000000    0.500000    0.965000    2.000000 Uiso  0.2700
 Sc1_A2_n484 Sc3+    0.500000    0.000000    0.967000    2.000000 Uiso  1.0000
 Cl1_A2_n484 Cl1-    0.742100    0.768700    0.967000    2.000000 Uiso  1.0000
 Cl2_A2_n484 Cl1-    0.257900    0.231300    0.967000    2.000000 Uiso  1.0000
 Cl3_A2_n484 Cl1-    0.738700    0.237100    0.967322    2.000000 Uiso  1.0000
 Cl4_A2_n484 Cl1-    0.261300    0.762900    0.967322    2.000000 Uiso  1.0000
 Cl5_A2_n484 Cl1-    0.738700    0.237100    0.966678    2.000000 Uiso  1.0000
 Cl6_A2_n484 Cl1-    0.261300    0.762900    0.966678    2.000000 Uiso  1.0000
 Li3_A2_n484 Li+    0.000000    0.500000    0.967000    2.000000 Uiso  0.2700
 Sc1_A2_n485 Sc3+    0.500000    0.000000    0.969000    2.000000 Uiso  1.0000
 Cl1_A2_n485 Cl1-    0.742100    0.768700    0.969000    2.000000 Uiso  1.0000
 Cl2_A2_n485 Cl1-    0.257900    0.231300    0.969000    2.000000 Uiso  1.0000
 Cl3_A2_n485 Cl1-    0.738700    0.237100    0.969322    2.000000 Uiso  1.0000
 Cl4_A2_n485 Cl1-    0.261300    0.762900    0.969322    2.000000 Uiso  1.0000
 Cl5_A2_n485 Cl1-    0.738700    0.237100    0.968678    2.000000 Uiso  1.0000
 Cl6_A2_n485 Cl1-    0.261300    0.762900    0.968678    2.000000 Uiso  1.0000
 Li3_A2_n485 Li+    0.000000    0.500000    0.969000    2.000000 Uiso  0.2700
 Sc1_A2_n486 Sc3+    0.500000    0.000000    0.971000    2.000000 Uiso  1.0000
 Cl1_A2_n486 Cl1-    0.742100    0.768700    0.971000    2.000000 Uiso  1.0000
 Cl2_A2_n486 Cl1-    0.257900    0.231300    0.971000    2.000000 Uiso  1.0000
 Cl3_A2_n486 Cl1-    0.738700    0.237100    0.971322    2.000000 Uiso  1.0000
 Cl4_A2_n486 Cl1-    0.261300    0.762900    0.971322    2.000000 Uiso  1.0000
 Cl5_A2_n486 Cl1-    0.738700    0.237100    0.970678    2.000000 Uiso  1.0000
 Cl6_A2_n486 Cl1-    0.261300    0.762900    0.970678    2.000000 Uiso  1.0000
 Li3_A2_n486 Li+    0.000000    0.500000    0.971000    2.000000 Uiso  0.2700
 Sc1_A2_n487_fault Sc3+    0.500000    0.333330    0.973000    2.000000 Uiso  1.0000
 Cl1_A2_n487_fault Cl1-    0.742100    1.102030    0.973000    2.000000 Uiso  1.0000
 Cl2_A2_n487_fault Cl1-    0.257900    0.564630    0.973000    2.000000 Uiso  1.0000
 Cl3_A2_n487_fault Cl1-    0.738700    0.570430    0.973322    2.000000 Uiso  1.0000
 Cl4_A2_n487_fault Cl1-    0.261300    1.096230    0.973322    2.000000 Uiso  1.0000
 Cl5_A2_n487_fault Cl1-    0.738700    0.570430    0.972678    2.000000 Uiso  1.0000
 Cl6_A2_n487_fault Cl1-    0.261300    1.096230    0.972678    2.000000 Uiso  1.0000
 Li3_A2_n487_fault Li+    0.000000    0.833330    0.973000    2.000000 Uiso  0.2700
 Sc1_A2_n488 Sc3+    0.500000    0.000000    0.975000    2.000000 Uiso  1.0000
 Cl1_A2_n488 Cl1-    0.742100    0.768700    0.975000    2.000000 Uiso  1.0000
 Cl2_A2_n488 Cl1-    0.257900    0.231300    0.975000    2.000000 Uiso  1.0000
 Cl3_A2_n488 Cl1-    0.738700    0.237100    0.975322    2.000000 Uiso  1.0000
 Cl4_A2_n488 Cl1-    0.261300    0.762900    0.975322    2.000000 Uiso  1.0000
 Cl5_A2_n488 Cl1-    0.738700    0.237100    0.974678    2.000000 Uiso  1.0000
 Cl6_A2_n488 Cl1-    0.261300    0.762900    0.974678    2.000000 Uiso  1.0000
 Li3_A2_n488 Li+    0.000000    0.500000    0.975000    2.000000 Uiso  0.2700
 Sc1_A2_n489 Sc3+    0.500000    0.000000    0.977000    2.000000 Uiso  1.0000
 Cl1_A2_n489 Cl1-    0.742100    0.768700    0.977000    2.000000 Uiso  1.0000
 Cl2_A2_n489 Cl1-    0.257900    0.231300    0.977000    2.000000 Uiso  1.0000
 Cl3_A2_n489 Cl1-    0.738700    0.237100    0.977322    2.000000 Uiso  1.0000
 Cl4_A2_n489 Cl1-    0.261300    0.762900    0.977322    2.000000 Uiso  1.0000
 Cl5_A2_n489 Cl1-    0.738700    0.237100    0.976678    2.000000 Uiso  1.0000
 Cl6_A2_n489 Cl1-    0.261300    0.762900    0.976678    2.000000 Uiso  1.0000
 Li3_A2_n489 Li+    0.000000    0.500000    0.977000    2.000000 Uiso  0.2700
 Sc1_A2_n490 Sc3+    0.500000    0.000000    0.979000    2.000000 Uiso  1.0000
 Cl1_A2_n490 Cl1-    0.742100    0.768700    0.979000    2.000000 Uiso  1.0000
 Cl2_A2_n490 Cl1-    0.257900    0.231300    0.979000    2.000000 Uiso  1.0000
 Cl3_A2_n490 Cl1-    0.738700    0.237100    0.979322    2.000000 Uiso  1.0000
 Cl4_A2_n490 Cl1-    0.261300    0.762900    0.979322    2.000000 Uiso  1.0000
 Cl5_A2_n490 Cl1-    0.738700    0.237100    0.978678    2.000000 Uiso  1.0000
 Cl6_A2_n490 Cl1-    0.261300    0.762900    0.978678    2.000000 Uiso  1.0000
 Li3_A2_n490 Li+    0.000000    0.500000    0.979000    2.000000 Uiso  0.2700
 Sc1_A2_n491 Sc3+    0.500000    0.000000    0.981000    2.000000 Uiso  1.0000
 Cl1_A2_n491 Cl1-    0.742100    0.768700    0.981000    2.000000 Uiso  1.0000
 Cl2_A2_n491 Cl1-    0.257900    0.231300    0.981000    2.000000 Uiso  1.0000
 Cl3_A2_n491 Cl1-    0.738700    0.237100    0.981322    2.000000 Uiso  1.0000
 Cl4_A2_n491 Cl1-    0.261300    0.762900    0.981322    2.000000 Uiso  1.0000
 Cl5_A2_n491 Cl1-    0.738700    0.237100    0.980678    2.000000 Uiso  1.0000
 Cl6_A2_n491 Cl1-    0.261300    0.762900    0.980678    2.000000 Uiso  1.0000
 Li3_A2_n491 Li+    0.000000    0.500000    0.981000    2.000000 Uiso  0.2700
 Sc1_A2_n492 Sc3+    0.500000    0.000000    0.983000    2.000000 Uiso  1.0000
 Cl1_A2_n492 Cl1-    0.742100    0.768700    0.983000    2.000000 Uiso  1.0000
 Cl2_A2_n492 Cl1-    0.257900    0.231300    0.983000    2.000000 Uiso  1.0000
 Cl3_A2_n492 Cl1-    0.738700    0.237100    0.983322    2.000000 Uiso  1.0000
 Cl4_A2_n492 Cl1-    0.261300    0.762900    0.983322    2.000000 Uiso  1.0000
 Cl5_A2_n492 Cl1-    0.738700    0.237100    0.982678    2.000000 Uiso  1.0000
 Cl6_A2_n492 Cl1-    0.261300    0.762900    0.982678    2.000000 Uiso  1.0000
 Li3_A2_n492 Li+    0.000000    0.500000    0.983000    2.000000 Uiso  0.2700
 Sc1_A2_n493 Sc3+    0.500000    0.000000    0.985000    2.000000 Uiso  1.0000
 Cl1_A2_n493 Cl1-    0.742100    0.768700    0.985000    2.000000 Uiso  1.0000
 Cl2_A2_n493 Cl1-    0.257900    0.231300    0.985000    2.000000 Uiso  1.0000
 Cl3_A2_n493 Cl1-    0.738700    0.237100    0.985322    2.000000 Uiso  1.0000
 Cl4_A2_n493 Cl1-    0.261300    0.762900    0.985322    2.000000 Uiso  1.0000
 Cl5_A2_n493 Cl1-    0.738700    0.237100    0.984678    2.000000 Uiso  1.0000
 Cl6_A2_n493 Cl1-    0.261300    0.762900    0.984678    2.000000 Uiso  1.0000
 Li3_A2_n493 Li+    0.000000    0.500000    0.985000    2.000000 Uiso  0.2700
 Sc1_A2_n494 Sc3+    0.500000    0.000000    0.987000    2.000000 Uiso  1.0000
 Cl1_A2_n494 Cl1-    0.742100    0.768700    0.987000    2.000000 Uiso  1.0000
 Cl2_A2_n494 Cl1-    0.257900    0.231300    0.987000    2.000000 Uiso  1.0000
 Cl3_A2_n494 Cl1-    0.738700    0.237100    0.987322    2.000000 Uiso  1.0000
 Cl4_A2_n494 Cl1-    0.261300    0.762900    0.987322    2.000000 Uiso  1.0000
 Cl5_A2_n494 Cl1-    0.738700    0.237100    0.986678    2.000000 Uiso  1.0000
 Cl6_A2_n494 Cl1-    0.261300    0.762900    0.986678    2.000000 Uiso  1.0000
 Li3_A2_n494 Li+    0.000000    0.500000    0.987000    2.000000 Uiso  0.2700
 Sc1_A2_n495 Sc3+    0.500000    0.000000    0.989000    2.000000 Uiso  1.0000
 Cl1_A2_n495 Cl1-    0.742100    0.768700    0.989000    2.000000 Uiso  1.0000
 Cl2_A2_n495 Cl1-    0.257900    0.231300    0.989000    2.000000 Uiso  1.0000
 Cl3_A2_n495 Cl1-    0.738700    0.237100    0.989322    2.000000 Uiso  1.0000
 Cl4_A2_n495 Cl1-    0.261300    0.762900    0.989322    2.000000 Uiso  1.0000
 Cl5_A2_n495 Cl1-    0.738700    0.237100    0.988678    2.000000 Uiso  1.0000
 Cl6_A2_n495 Cl1-    0.261300    0.762900    0.988678    2.000000 Uiso  1.0000
 Li3_A2_n495 Li+    0.000000    0.500000    0.989000    2.000000 Uiso  0.2700
 Sc1_A2_n496 Sc3+    0.500000    0.000000    0.991000    2.000000 Uiso  1.0000
 Cl1_A2_n496 Cl1-    0.742100    0.768700    0.991000    2.000000 Uiso  1.0000
 Cl2_A2_n496 Cl1-    0.257900    0.231300    0.991000    2.000000 Uiso  1.0000
 Cl3_A2_n496 Cl1-    0.738700    0.237100    0.991322    2.000000 Uiso  1.0000
 Cl4_A2_n496 Cl1-    0.261300    0.762900    0.991322    2.000000 Uiso  1.0000
 Cl5_A2_n496 Cl1-    0.738700    0.237100    0.990678    2.000000 Uiso  1.0000
 Cl6_A2_n496 Cl1-    0.261300    0.762900    0.990678    2.000000 Uiso  1.0000
 Li3_A2_n496 Li+    0.000000    0.500000    0.991000    2.000000 Uiso  0.2700
 Sc1_A2_n497 Sc3+    0.500000    0.000000    0.993000    2.000000 Uiso  1.0000
 Cl1_A2_n497 Cl1-    0.742100    0.768700    0.993000    2.000000 Uiso  1.0000
 Cl2_A2_n497 Cl1-    0.257900    0.231300    0.993000    2.000000 Uiso  1.0000
 Cl3_A2_n497 Cl1-    0.738700    0.237100    0.993322    2.000000 Uiso  1.0000
 Cl4_A2_n497 Cl1-    0.261300    0.762900    0.993322    2.000000 Uiso  1.0000
 Cl5_A2_n497 Cl1-    0.738700    0.237100    0.992678    2.000000 Uiso  1.0000
 Cl6_A2_n497 Cl1-    0.261300    0.762900    0.992678    2.000000 Uiso  1.0000
 Li3_A2_n497 Li+    0.000000    0.500000    0.993000    2.000000 Uiso  0.2700
 Sc1_A2_n498 Sc3+    0.500000    0.000000    0.995000    2.000000 Uiso  1.0000
 Cl1_A2_n498 Cl1-    0.742100    0.768700    0.995000    2.000000 Uiso  1.0000
 Cl2_A2_n498 Cl1-    0.257900    0.231300    0.995000    2.000000 Uiso  1.0000
 Cl3_A2_n498 Cl1-    0.738700    0.237100    0.995322    2.000000 Uiso  1.0000
 Cl4_A2_n498 Cl1-    0.261300    0.762900    0.995322    2.000000 Uiso  1.0000
 Cl5_A2_n498 Cl1-    0.738700    0.237100    0.994678    2.000000 Uiso  1.0000
 Cl6_A2_n498 Cl1-    0.261300    0.762900    0.994678    2.000000 Uiso  1.0000
 Li3_A2_n498 Li+    0.000000    0.500000    0.995000    2.000000 Uiso  0.2700
 Sc1_A2_n499 Sc3+    0.500000    0.000000    0.997000    2.000000 Uiso  1.0000
 Cl1_A2_n499 Cl1-    0.742100    0.768700    0.997000    2.000000 Uiso  1.0000
 Cl2_A2_n499 Cl1-    0.257900    0.231300    0.997000    2.000000 Uiso  1.0000
 Cl3_A2_n499 Cl1-    0.738700    0.237100    0.997322    2.000000 Uiso  1.0000
 Cl4_A2_n499 Cl1-    0.261300    0.762900    0.997322    2.000000 Uiso  1.0000
 Cl5_A2_n499 Cl1-    0.738700    0.237100    0.996678    2.000000 Uiso  1.0000
 Cl6_A2_n499 Cl1-    0.261300    0.762900    0.996678    2.000000 Uiso  1.0000
 Li3_A2_n499 Li+    0.000000    0.500000    0.997000    2.000000 Uiso  0.2700
 Sc1_A2_n500 Sc3+    0.500000    0.000000    0.999000    2.000000 Uiso  1.0000
 Cl1_A2_n500 Cl1-    0.742100    0.768700    0.999000    2.000000 Uiso  1.0000
 Cl2_A2_n500 Cl1-    0.257900    0.231300    0.999000    2.000000 Uiso  1.0000
 Cl3_A2_n500 Cl1-    0.738700    0.237100    0.999322    2.000000 Uiso  1.0000
 Cl4_A2_n500 Cl1-    0.261300    0.762900    0.999322    2.000000 Uiso  1.0000
 Cl5_A2_n500 Cl1-    0.738700    0.237100    0.998678    2.000000 Uiso  1.0000
 Cl6_A2_n500 Cl1-    0.261300    0.762900    0.998678    2.000000 Uiso  1.0000
 Li3_A2_n500 Li+    0.000000    0.500000    0.999000    2.000000 Uiso  0.2700
 Li1_B3_n1 Li+    0.000000    0.000000    0.001338    2.000000 Uiso  1.0000
 Li2_B3_n1 Li+    0.500000    0.500000    0.001338    2.000000 Uiso  0.3650
 Li1_B3_n2 Li+    0.000000    0.000000    0.003338    2.000000 Uiso  1.0000
 Li2_B3_n2 Li+    0.500000    0.500000    0.003338    2.000000 Uiso  0.3650
 Li1_B3_n3 Li+    0.000000    0.000000    0.005338    2.000000 Uiso  1.0000
 Li2_B3_n3 Li+    0.500000    0.500000    0.005338    2.000000 Uiso  0.3650
 Li1_B3_n4 Li+    0.000000    0.000000    0.007338    2.000000 Uiso  1.0000
 Li2_B3_n4 Li+    0.500000    0.500000    0.007338    2.000000 Uiso  0.3650
 Li1_B3_n5 Li+    0.000000    0.000000    0.009338    2.000000 Uiso  1.0000
 Li2_B3_n5 Li+    0.500000    0.500000    0.009338    2.000000 Uiso  0.3650
 Li1_B3_n6 Li+    0.000000    0.000000    0.011338    2.000000 Uiso  1.0000
 Li2_B3_n6 Li+    0.500000    0.500000    0.011338    2.000000 Uiso  0.3650
 Li1_B3_n7 Li+    0.000000    0.000000    0.013338    2.000000 Uiso  1.0000
 Li2_B3_n7 Li+    0.500000    0.500000    0.013338    2.000000 Uiso  0.3650
 Li1_B3_n8 Li+    0.000000    0.000000    0.015338    2.000000 Uiso  1.0000
 Li2_B3_n8 Li+    0.500000    0.500000    0.015338    2.000000 Uiso  0.3650
 Li1_B3_n9 Li+    0.000000    0.000000    0.017338    2.000000 Uiso  1.0000
 Li2_B3_n9 Li+    0.500000    0.500000    0.017338    2.000000 Uiso  0.3650
 Li1_B3_n10 Li+    0.000000    0.000000    0.019338    2.000000 Uiso  1.0000
 Li2_B3_n10 Li+    0.500000    0.500000    0.019338    2.000000 Uiso  0.3650
 Li1_B3_n11 Li+    0.000000    0.000000    0.021338    2.000000 Uiso  1.0000
 Li2_B3_n11 Li+    0.500000    0.500000    0.021338    2.000000 Uiso  0.3650
 Li1_B3_n12 Li+    0.000000    0.000000    0.023338    2.000000 Uiso  1.0000
 Li2_B3_n12 Li+    0.500000    0.500000    0.023338    2.000000 Uiso  0.3650
 Li1_B3_n13 Li+    0.000000    0.000000    0.025338    2.000000 Uiso  1.0000
 Li2_B3_n13 Li+    0.500000    0.500000    0.025338    2.000000 Uiso  0.3650
 Li1_B3_n14 Li+    0.000000    0.000000    0.027338    2.000000 Uiso  1.0000
 Li2_B3_n14 Li+    0.500000    0.500000    0.027338    2.000000 Uiso  0.3650
 Li1_B3_n15 Li+    0.000000    0.000000    0.029338    2.000000 Uiso  1.0000
 Li2_B3_n15 Li+    0.500000    0.500000    0.029338    2.000000 Uiso  0.3650
 Li1_B3_n16 Li+    0.000000    0.000000    0.031338    2.000000 Uiso  1.0000
 Li2_B3_n16 Li+    0.500000    0.500000    0.031338    2.000000 Uiso  0.3650
 Li1_B3_n17 Li+    0.000000    0.000000    0.033338    2.000000 Uiso  1.0000
 Li2_B3_n17 Li+    0.500000    0.500000    0.033338    2.000000 Uiso  0.3650
 Li1_B3_n18 Li+    0.000000    0.000000    0.035338    2.000000 Uiso  1.0000
 Li2_B3_n18 Li+    0.500000    0.500000    0.035338    2.000000 Uiso  0.3650
 Li1_B3_n19 Li+    0.000000    0.000000    0.037338    2.000000 Uiso  1.0000
 Li2_B3_n19 Li+    0.500000    0.500000    0.037338    2.000000 Uiso  0.3650
 Li1_B3_n20 Li+    0.000000    0.000000    0.039338    2.000000 Uiso  1.0000
 Li2_B3_n20 Li+    0.500000    0.500000    0.039338    2.000000 Uiso  0.3650
 Li1_B3_n21 Li+    0.000000    0.000000    0.041338    2.000000 Uiso  1.0000
 Li2_B3_n21 Li+    0.500000    0.500000    0.041338    2.000000 Uiso  0.3650
 Li1_B3_n22 Li+    0.000000    0.000000    0.043338    2.000000 Uiso  1.0000
 Li2_B3_n22 Li+    0.500000    0.500000    0.043338    2.000000 Uiso  0.3650
 Li1_B3_n23 Li+    0.000000    0.000000    0.045338    2.000000 Uiso  1.0000
 Li2_B3_n23 Li+    0.500000    0.500000    0.045338    2.000000 Uiso  0.3650
 Li1_B3_n24 Li+    0.000000    0.000000    0.047338    2.000000 Uiso  1.0000
 Li2_B3_n24 Li+    0.500000    0.500000    0.047338    2.000000 Uiso  0.3650
 Li1_B3_n25 Li+    0.000000    0.000000    0.049338    2.000000 Uiso  1.0000
 Li2_B3_n25 Li+    0.500000    0.500000    0.049338    2.000000 Uiso  0.3650
 Li1_B3_n26 Li+    0.000000    0.000000    0.051338    2.000000 Uiso  1.0000
 Li2_B3_n26 Li+    0.500000    0.500000    0.051338    2.000000 Uiso  0.3650
 Li1_B3_n27 Li+    0.000000    0.000000    0.053338    2.000000 Uiso  1.0000
 Li2_B3_n27 Li+    0.500000    0.500000    0.053338    2.000000 Uiso  0.3650
 Li1_B3_n28 Li+    0.000000    0.000000    0.055338    2.000000 Uiso  1.0000
 Li2_B3_n28 Li+    0.500000    0.500000    0.055338    2.000000 Uiso  0.3650
 Li1_B3_n29 Li+    0.000000    0.000000    0.057338    2.000000 Uiso  1.0000
 Li2_B3_n29 Li+    0.500000    0.500000    0.057338    2.000000 Uiso  0.3650
 Li1_B3_n30 Li+    0.000000    0.000000    0.059338    2.000000 Uiso  1.0000
 Li2_B3_n30 Li+    0.500000    0.500000    0.059338    2.000000 Uiso  0.3650
 Li1_B3_n31 Li+    0.000000    0.000000    0.061338    2.000000 Uiso  1.0000
 Li2_B3_n31 Li+    0.500000    0.500000    0.061338    2.000000 Uiso  0.3650
 Li1_B3_n32 Li+    0.000000    0.000000    0.063338    2.000000 Uiso  1.0000
 Li2_B3_n32 Li+    0.500000    0.500000    0.063338    2.000000 Uiso  0.3650
 Li1_B3_n33 Li+    0.000000    0.000000    0.065338    2.000000 Uiso  1.0000
 Li2_B3_n33 Li+    0.500000    0.500000    0.065338    2.000000 Uiso  0.3650
 Li1_B3_n34 Li+    0.000000    0.000000    0.067338    2.000000 Uiso  1.0000
 Li2_B3_n34 Li+    0.500000    0.500000    0.067338    2.000000 Uiso  0.3650
 Li1_B3_n35 Li+    0.000000    0.000000    0.069338    2.000000 Uiso  1.0000
 Li2_B3_n35 Li+    0.500000    0.500000    0.069338    2.000000 Uiso  0.3650
 Li1_B3_n36 Li+    0.000000    0.000000    0.071338    2.000000 Uiso  1.0000
 Li2_B3_n36 Li+    0.500000    0.500000    0.071338    2.000000 Uiso  0.3650
 Li1_B3_n37 Li+    0.000000    0.000000    0.073338    2.000000 Uiso  1.0000
 Li2_B3_n37 Li+    0.500000    0.500000    0.073338    2.000000 Uiso  0.3650
 Li1_B3_n38 Li+    0.000000    0.000000    0.075338    2.000000 Uiso  1.0000
 Li2_B3_n38 Li+    0.500000    0.500000    0.075338    2.000000 Uiso  0.3650
 Li1_B3_n39 Li+    0.000000    0.000000    0.077338    2.000000 Uiso  1.0000
 Li2_B3_n39 Li+    0.500000    0.500000    0.077338    2.000000 Uiso  0.3650
 Li1_B3_n40 Li+    0.000000    0.000000    0.079338    2.000000 Uiso  1.0000
 Li2_B3_n40 Li+    0.500000    0.500000    0.079338    2.000000 Uiso  0.3650
 Li1_B3_n41 Li+    0.000000    0.000000    0.081338    2.000000 Uiso  1.0000
 Li2_B3_n41 Li+    0.500000    0.500000    0.081338    2.000000 Uiso  0.3650
 Li1_B3_n42 Li+    0.000000    0.000000    0.083338    2.000000 Uiso  1.0000
 Li2_B3_n42 Li+    0.500000    0.500000    0.083338    2.000000 Uiso  0.3650
 Li1_B3_n43 Li+    0.000000    0.000000    0.085338    2.000000 Uiso  1.0000
 Li2_B3_n43 Li+    0.500000    0.500000    0.085338    2.000000 Uiso  0.3650
 Li1_B3_n44 Li+    0.000000    0.000000    0.087338    2.000000 Uiso  1.0000
 Li2_B3_n44 Li+    0.500000    0.500000    0.087338    2.000000 Uiso  0.3650
 Li1_B3_n45 Li+    0.000000    0.000000    0.089338    2.000000 Uiso  1.0000
 Li2_B3_n45 Li+    0.500000    0.500000    0.089338    2.000000 Uiso  0.3650
 Li1_B3_n46 Li+    0.000000    0.000000    0.091338    2.000000 Uiso  1.0000
 Li2_B3_n46 Li+    0.500000    0.500000    0.091338    2.000000 Uiso  0.3650
 Li1_B3_n47 Li+    0.000000    0.000000    0.093338    2.000000 Uiso  1.0000
 Li2_B3_n47 Li+    0.500000    0.500000    0.093338    2.000000 Uiso  0.3650
 Li1_B3_n48 Li+    0.000000    0.000000    0.095338    2.000000 Uiso  1.0000
 Li2_B3_n48 Li+    0.500000    0.500000    0.095338    2.000000 Uiso  0.3650
 Li1_B3_n49 Li+    0.000000    0.000000    0.097338    2.000000 Uiso  1.0000
 Li2_B3_n49 Li+    0.500000    0.500000    0.097338    2.000000 Uiso  0.3650
 Li1_B3_n50 Li+    0.000000    0.000000    0.099338    2.000000 Uiso  1.0000
 Li2_B3_n50 Li+    0.500000    0.500000    0.099338    2.000000 Uiso  0.3650
 Li1_B3_n51 Li+    0.000000    0.000000    0.101338    2.000000 Uiso  1.0000
 Li2_B3_n51 Li+    0.500000    0.500000    0.101338    2.000000 Uiso  0.3650
 Li1_B3_n52 Li+    0.000000    0.000000    0.103338    2.000000 Uiso  1.0000
 Li2_B3_n52 Li+    0.500000    0.500000    0.103338    2.000000 Uiso  0.3650
 Li1_B3_n53 Li+    0.000000    0.000000    0.105338    2.000000 Uiso  1.0000
 Li2_B3_n53 Li+    0.500000    0.500000    0.105338    2.000000 Uiso  0.3650
 Li1_B3_n54 Li+    0.000000    0.000000    0.107338    2.000000 Uiso  1.0000
 Li2_B3_n54 Li+    0.500000    0.500000    0.107338    2.000000 Uiso  0.3650
 Li1_B3_n55 Li+    0.000000    0.000000    0.109338    2.000000 Uiso  1.0000
 Li2_B3_n55 Li+    0.500000    0.500000    0.109338    2.000000 Uiso  0.3650
 Li1_B3_n56 Li+    0.000000    0.000000    0.111338    2.000000 Uiso  1.0000
 Li2_B3_n56 Li+    0.500000    0.500000    0.111338    2.000000 Uiso  0.3650
 Li1_B3_n57 Li+    0.000000    0.000000    0.113338    2.000000 Uiso  1.0000
 Li2_B3_n57 Li+    0.500000    0.500000    0.113338    2.000000 Uiso  0.3650
 Li1_B3_n58 Li+    0.000000    0.000000    0.115338    2.000000 Uiso  1.0000
 Li2_B3_n58 Li+    0.500000    0.500000    0.115338    2.000000 Uiso  0.3650
 Li1_B3_n59 Li+    0.000000    0.000000    0.117338    2.000000 Uiso  1.0000
 Li2_B3_n59 Li+    0.500000    0.500000    0.117338    2.000000 Uiso  0.3650
 Li1_B3_n60 Li+    0.000000    0.000000    0.119338    2.000000 Uiso  1.0000
 Li2_B3_n60 Li+    0.500000    0.500000    0.119338    2.000000 Uiso  0.3650
 Li1_B3_n61 Li+    0.000000    0.000000    0.121338    2.000000 Uiso  1.0000
 Li2_B3_n61 Li+    0.500000    0.500000    0.121338    2.000000 Uiso  0.3650
 Li1_B3_n62 Li+    0.000000    0.000000    0.123338    2.000000 Uiso  1.0000
 Li2_B3_n62 Li+    0.500000    0.500000    0.123338    2.000000 Uiso  0.3650
 Li1_B3_n63 Li+    0.000000    0.000000    0.125338    2.000000 Uiso  1.0000
 Li2_B3_n63 Li+    0.500000    0.500000    0.125338    2.000000 Uiso  0.3650
 Li1_B3_n64 Li+    0.000000    0.000000    0.127338    2.000000 Uiso  1.0000
 Li2_B3_n64 Li+    0.500000    0.500000    0.127338    2.000000 Uiso  0.3650
 Li1_B3_n65 Li+    0.000000    0.000000    0.129338    2.000000 Uiso  1.0000
 Li2_B3_n65 Li+    0.500000    0.500000    0.129338    2.000000 Uiso  0.3650
 Li1_B3_n66 Li+    0.000000    0.000000    0.131338    2.000000 Uiso  1.0000
 Li2_B3_n66 Li+    0.500000    0.500000    0.131338    2.000000 Uiso  0.3650
 Li1_B3_n67 Li+    0.000000    0.000000    0.133338    2.000000 Uiso  1.0000
 Li2_B3_n67 Li+    0.500000    0.500000    0.133338    2.000000 Uiso  0.3650
 Li1_B3_n68 Li+    0.000000    0.000000    0.135338    2.000000 Uiso  1.0000
 Li2_B3_n68 Li+    0.500000    0.500000    0.135338    2.000000 Uiso  0.3650
 Li1_B3_n69 Li+    0.000000    0.000000    0.137338    2.000000 Uiso  1.0000
 Li2_B3_n69 Li+    0.500000    0.500000    0.137338    2.000000 Uiso  0.3650
 Li1_B3_n70 Li+    0.000000    0.000000    0.139338    2.000000 Uiso  1.0000
 Li2_B3_n70 Li+    0.500000    0.500000    0.139338    2.000000 Uiso  0.3650
 Li1_B3_n71 Li+    0.000000    0.000000    0.141338    2.000000 Uiso  1.0000
 Li2_B3_n71 Li+    0.500000    0.500000    0.141338    2.000000 Uiso  0.3650
 Li1_B3_n72 Li+    0.000000    0.000000    0.143338    2.000000 Uiso  1.0000
 Li2_B3_n72 Li+    0.500000    0.500000    0.143338    2.000000 Uiso  0.3650
 Li1_B3_n73 Li+    0.000000    0.000000    0.145338    2.000000 Uiso  1.0000
 Li2_B3_n73 Li+    0.500000    0.500000    0.145338    2.000000 Uiso  0.3650
 Li1_B3_n74 Li+    0.000000    0.000000    0.147338    2.000000 Uiso  1.0000
 Li2_B3_n74 Li+    0.500000    0.500000    0.147338    2.000000 Uiso  0.3650
 Li1_B3_n75 Li+    0.000000    0.000000    0.149338    2.000000 Uiso  1.0000
 Li2_B3_n75 Li+    0.500000    0.500000    0.149338    2.000000 Uiso  0.3650
 Li1_B3_n76 Li+    0.000000    0.000000    0.151338    2.000000 Uiso  1.0000
 Li2_B3_n76 Li+    0.500000    0.500000    0.151338    2.000000 Uiso  0.3650
 Li1_B3_n77 Li+    0.000000    0.000000    0.153338    2.000000 Uiso  1.0000
 Li2_B3_n77 Li+    0.500000    0.500000    0.153338    2.000000 Uiso  0.3650
 Li1_B3_n78 Li+    0.000000    0.000000    0.155338    2.000000 Uiso  1.0000
 Li2_B3_n78 Li+    0.500000    0.500000    0.155338    2.000000 Uiso  0.3650
 Li1_B3_n79 Li+    0.000000    0.000000    0.157338    2.000000 Uiso  1.0000
 Li2_B3_n79 Li+    0.500000    0.500000    0.157338    2.000000 Uiso  0.3650
 Li1_B3_n80 Li+    0.000000    0.000000    0.159338    2.000000 Uiso  1.0000
 Li2_B3_n80 Li+    0.500000    0.500000    0.159338    2.000000 Uiso  0.3650
 Li1_B3_n81 Li+    0.000000    0.000000    0.161338    2.000000 Uiso  1.0000
 Li2_B3_n81 Li+    0.500000    0.500000    0.161338    2.000000 Uiso  0.3650
 Li1_B3_n82 Li+    0.000000    0.000000    0.163338    2.000000 Uiso  1.0000
 Li2_B3_n82 Li+    0.500000    0.500000    0.163338    2.000000 Uiso  0.3650
 Li1_B3_n83 Li+    0.000000    0.000000    0.165338    2.000000 Uiso  1.0000
 Li2_B3_n83 Li+    0.500000    0.500000    0.165338    2.000000 Uiso  0.3650
 Li1_B3_n84 Li+    0.000000    0.000000    0.167338    2.000000 Uiso  1.0000
 Li2_B3_n84 Li+    0.500000    0.500000    0.167338    2.000000 Uiso  0.3650
 Li1_B3_n85 Li+    0.000000    0.000000    0.169338    2.000000 Uiso  1.0000
 Li2_B3_n85 Li+    0.500000    0.500000    0.169338    2.000000 Uiso  0.3650
 Li1_B3_n86 Li+    0.000000    0.000000    0.171338    2.000000 Uiso  1.0000
 Li2_B3_n86 Li+    0.500000    0.500000    0.171338    2.000000 Uiso  0.3650
 Li1_B3_n87 Li+    0.000000    0.000000    0.173338    2.000000 Uiso  1.0000
 Li2_B3_n87 Li+    0.500000    0.500000    0.173338    2.000000 Uiso  0.3650
 Li1_B3_n88 Li+    0.000000    0.000000    0.175338    2.000000 Uiso  1.0000
 Li2_B3_n88 Li+    0.500000    0.500000    0.175338    2.000000 Uiso  0.3650
 Li1_B3_n89 Li+    0.000000    0.000000    0.177338    2.000000 Uiso  1.0000
 Li2_B3_n89 Li+    0.500000    0.500000    0.177338    2.000000 Uiso  0.3650
 Li1_B3_n90 Li+    0.000000    0.000000    0.179338    2.000000 Uiso  1.0000
 Li2_B3_n90 Li+    0.500000    0.500000    0.179338    2.000000 Uiso  0.3650
 Li1_B3_n91 Li+    0.000000    0.000000    0.181338    2.000000 Uiso  1.0000
 Li2_B3_n91 Li+    0.500000    0.500000    0.181338    2.000000 Uiso  0.3650
 Li1_B3_n92 Li+    0.000000    0.000000    0.183338    2.000000 Uiso  1.0000
 Li2_B3_n92 Li+    0.500000    0.500000    0.183338    2.000000 Uiso  0.3650
 Li1_B3_n93 Li+    0.000000    0.000000    0.185338    2.000000 Uiso  1.0000
 Li2_B3_n93 Li+    0.500000    0.500000    0.185338    2.000000 Uiso  0.3650
 Li1_B3_n94 Li+    0.000000    0.000000    0.187338    2.000000 Uiso  1.0000
 Li2_B3_n94 Li+    0.500000    0.500000    0.187338    2.000000 Uiso  0.3650
 Li1_B3_n95 Li+    0.000000    0.000000    0.189338    2.000000 Uiso  1.0000
 Li2_B3_n95 Li+    0.500000    0.500000    0.189338    2.000000 Uiso  0.3650
 Li1_B3_n96 Li+    0.000000    0.000000    0.191338    2.000000 Uiso  1.0000
 Li2_B3_n96 Li+    0.500000    0.500000    0.191338    2.000000 Uiso  0.3650
 Li1_B3_n97 Li+    0.000000    0.000000    0.193338    2.000000 Uiso  1.0000
 Li2_B3_n97 Li+    0.500000    0.500000    0.193338    2.000000 Uiso  0.3650
 Li1_B3_n98 Li+    0.000000    0.000000    0.195338    2.000000 Uiso  1.0000
 Li2_B3_n98 Li+    0.500000    0.500000    0.195338    2.000000 Uiso  0.3650
 Li1_B3_n99 Li+    0.000000    0.000000    0.197338    2.000000 Uiso  1.0000
 Li2_B3_n99 Li+    0.500000    0.500000    0.197338    2.000000 Uiso  0.3650
 Li1_B3_n100 Li+    0.000000    0.000000    0.199338    2.000000 Uiso  1.0000
 Li2_B3_n100 Li+    0.500000    0.500000    0.199338    2.000000 Uiso  0.3650
 Li1_B3_n101 Li+    0.000000    0.000000    0.201338    2.000000 Uiso  1.0000
 Li2_B3_n101 Li+    0.500000    0.500000    0.201338    2.000000 Uiso  0.3650
 Li1_B3_n102 Li+    0.000000    0.000000    0.203338    2.000000 Uiso  1.0000
 Li2_B3_n102 Li+    0.500000    0.500000    0.203338    2.000000 Uiso  0.3650
 Li1_B3_n103 Li+    0.000000    0.000000    0.205338    2.000000 Uiso  1.0000
 Li2_B3_n103 Li+    0.500000    0.500000    0.205338    2.000000 Uiso  0.3650
 Li1_B3_n104 Li+    0.000000    0.000000    0.207338    2.000000 Uiso  1.0000
 Li2_B3_n104 Li+    0.500000    0.500000    0.207338    2.000000 Uiso  0.3650
 Li1_B3_n105 Li+    0.000000    0.000000    0.209338    2.000000 Uiso  1.0000
 Li2_B3_n105 Li+    0.500000    0.500000    0.209338    2.000000 Uiso  0.3650
 Li1_B3_n106 Li+    0.000000    0.000000    0.211338    2.000000 Uiso  1.0000
 Li2_B3_n106 Li+    0.500000    0.500000    0.211338    2.000000 Uiso  0.3650
 Li1_B3_n107 Li+    0.000000    0.000000    0.213338    2.000000 Uiso  1.0000
 Li2_B3_n107 Li+    0.500000    0.500000    0.213338    2.000000 Uiso  0.3650
 Li1_B3_n108 Li+    0.000000    0.000000    0.215338    2.000000 Uiso  1.0000
 Li2_B3_n108 Li+    0.500000    0.500000    0.215338    2.000000 Uiso  0.3650
 Li1_B3_n109 Li+    0.000000    0.000000    0.217338    2.000000 Uiso  1.0000
 Li2_B3_n109 Li+    0.500000    0.500000    0.217338    2.000000 Uiso  0.3650
 Li1_B3_n110 Li+    0.000000    0.000000    0.219338    2.000000 Uiso  1.0000
 Li2_B3_n110 Li+    0.500000    0.500000    0.219338    2.000000 Uiso  0.3650
 Li1_B3_n111 Li+    0.000000    0.000000    0.221338    2.000000 Uiso  1.0000
 Li2_B3_n111 Li+    0.500000    0.500000    0.221338    2.000000 Uiso  0.3650
 Li1_B3_n112 Li+    0.000000    0.000000    0.223338    2.000000 Uiso  1.0000
 Li2_B3_n112 Li+    0.500000    0.500000    0.223338    2.000000 Uiso  0.3650
 Li1_B3_n113 Li+    0.000000    0.000000    0.225338    2.000000 Uiso  1.0000
 Li2_B3_n113 Li+    0.500000    0.500000    0.225338    2.000000 Uiso  0.3650
 Li1_B3_n114 Li+    0.000000    0.000000    0.227338    2.000000 Uiso  1.0000
 Li2_B3_n114 Li+    0.500000    0.500000    0.227338    2.000000 Uiso  0.3650
 Li1_B3_n115 Li+    0.000000    0.000000    0.229338    2.000000 Uiso  1.0000
 Li2_B3_n115 Li+    0.500000    0.500000    0.229338    2.000000 Uiso  0.3650
 Li1_B3_n116 Li+    0.000000    0.000000    0.231338    2.000000 Uiso  1.0000
 Li2_B3_n116 Li+    0.500000    0.500000    0.231338    2.000000 Uiso  0.3650
 Li1_B3_n117 Li+    0.000000    0.000000    0.233338    2.000000 Uiso  1.0000
 Li2_B3_n117 Li+    0.500000    0.500000    0.233338    2.000000 Uiso  0.3650
 Li1_B3_n118 Li+    0.000000    0.000000    0.235338    2.000000 Uiso  1.0000
 Li2_B3_n118 Li+    0.500000    0.500000    0.235338    2.000000 Uiso  0.3650
 Li1_B3_n119 Li+    0.000000    0.000000    0.237338    2.000000 Uiso  1.0000
 Li2_B3_n119 Li+    0.500000    0.500000    0.237338    2.000000 Uiso  0.3650
 Li1_B3_n120 Li+    0.000000    0.000000    0.239338    2.000000 Uiso  1.0000
 Li2_B3_n120 Li+    0.500000    0.500000    0.239338    2.000000 Uiso  0.3650
 Li1_B3_n121 Li+    0.000000    0.000000    0.241338    2.000000 Uiso  1.0000
 Li2_B3_n121 Li+    0.500000    0.500000    0.241338    2.000000 Uiso  0.3650
 Li1_B3_n122 Li+    0.000000    0.000000    0.243338    2.000000 Uiso  1.0000
 Li2_B3_n122 Li+    0.500000    0.500000    0.243338    2.000000 Uiso  0.3650
 Li1_B3_n123 Li+    0.000000    0.000000    0.245338    2.000000 Uiso  1.0000
 Li2_B3_n123 Li+    0.500000    0.500000    0.245338    2.000000 Uiso  0.3650
 Li1_B3_n124 Li+    0.000000    0.000000    0.247338    2.000000 Uiso  1.0000
 Li2_B3_n124 Li+    0.500000    0.500000    0.247338    2.000000 Uiso  0.3650
 Li1_B3_n125 Li+    0.000000    0.000000    0.249338    2.000000 Uiso  1.0000
 Li2_B3_n125 Li+    0.500000    0.500000    0.249338    2.000000 Uiso  0.3650
 Li1_B3_n126 Li+    0.000000    0.000000    0.251338    2.000000 Uiso  1.0000
 Li2_B3_n126 Li+    0.500000    0.500000    0.251338    2.000000 Uiso  0.3650
 Li1_B3_n127 Li+    0.000000    0.000000    0.253338    2.000000 Uiso  1.0000
 Li2_B3_n127 Li+    0.500000    0.500000    0.253338    2.000000 Uiso  0.3650
 Li1_B3_n128 Li+    0.000000    0.000000    0.255338    2.000000 Uiso  1.0000
 Li2_B3_n128 Li+    0.500000    0.500000    0.255338    2.000000 Uiso  0.3650
 Li1_B3_n129 Li+    0.000000    0.000000    0.257338    2.000000 Uiso  1.0000
 Li2_B3_n129 Li+    0.500000    0.500000    0.257338    2.000000 Uiso  0.3650
 Li1_B3_n130 Li+    0.000000    0.000000    0.259338    2.000000 Uiso  1.0000
 Li2_B3_n130 Li+    0.500000    0.500000    0.259338    2.000000 Uiso  0.3650
 Li1_B3_n131 Li+    0.000000    0.000000    0.261338    2.000000 Uiso  1.0000
 Li2_B3_n131 Li+    0.500000    0.500000    0.261338    2.000000 Uiso  0.3650
 Li1_B3_n132 Li+    0.000000    0.000000    0.263338    2.000000 Uiso  1.0000
 Li2_B3_n132 Li+    0.500000    0.500000    0.263338    2.000000 Uiso  0.3650
 Li1_B3_n133 Li+    0.000000    0.000000    0.265338    2.000000 Uiso  1.0000
 Li2_B3_n133 Li+    0.500000    0.500000    0.265338    2.000000 Uiso  0.3650
 Li1_B3_n134 Li+    0.000000    0.000000    0.267338    2.000000 Uiso  1.0000
 Li2_B3_n134 Li+    0.500000    0.500000    0.267338    2.000000 Uiso  0.3650
 Li1_B3_n135 Li+    0.000000    0.000000    0.269338    2.000000 Uiso  1.0000
 Li2_B3_n135 Li+    0.500000    0.500000    0.269338    2.000000 Uiso  0.3650
 Li1_B3_n136 Li+    0.000000    0.000000    0.271338    2.000000 Uiso  1.0000
 Li2_B3_n136 Li+    0.500000    0.500000    0.271338    2.000000 Uiso  0.3650
 Li1_B3_n137 Li+    0.000000    0.000000    0.273338    2.000000 Uiso  1.0000
 Li2_B3_n137 Li+    0.500000    0.500000    0.273338    2.000000 Uiso  0.3650
 Li1_B3_n138 Li+    0.000000    0.000000    0.275338    2.000000 Uiso  1.0000
 Li2_B3_n138 Li+    0.500000    0.500000    0.275338    2.000000 Uiso  0.3650
 Li1_B3_n139 Li+    0.000000    0.000000    0.277338    2.000000 Uiso  1.0000
 Li2_B3_n139 Li+    0.500000    0.500000    0.277338    2.000000 Uiso  0.3650
 Li1_B3_n140 Li+    0.000000    0.000000    0.279338    2.000000 Uiso  1.0000
 Li2_B3_n140 Li+    0.500000    0.500000    0.279338    2.000000 Uiso  0.3650
 Li1_B3_n141 Li+    0.000000    0.000000    0.281338    2.000000 Uiso  1.0000
 Li2_B3_n141 Li+    0.500000    0.500000    0.281338    2.000000 Uiso  0.3650
 Li1_B3_n142 Li+    0.000000    0.000000    0.283338    2.000000 Uiso  1.0000
 Li2_B3_n142 Li+    0.500000    0.500000    0.283338    2.000000 Uiso  0.3650
 Li1_B3_n143 Li+    0.000000    0.000000    0.285338    2.000000 Uiso  1.0000
 Li2_B3_n143 Li+    0.500000    0.500000    0.285338    2.000000 Uiso  0.3650
 Li1_B3_n144 Li+    0.000000    0.000000    0.287338    2.000000 Uiso  1.0000
 Li2_B3_n144 Li+    0.500000    0.500000    0.287338    2.000000 Uiso  0.3650
 Li1_B3_n145 Li+    0.000000    0.000000    0.289338    2.000000 Uiso  1.0000
 Li2_B3_n145 Li+    0.500000    0.500000    0.289338    2.000000 Uiso  0.3650
 Li1_B3_n146 Li+    0.000000    0.000000    0.291338    2.000000 Uiso  1.0000
 Li2_B3_n146 Li+    0.500000    0.500000    0.291338    2.000000 Uiso  0.3650
 Li1_B3_n147 Li+    0.000000    0.000000    0.293338    2.000000 Uiso  1.0000
 Li2_B3_n147 Li+    0.500000    0.500000    0.293338    2.000000 Uiso  0.3650
 Li1_B3_n148 Li+    0.000000    0.000000    0.295338    2.000000 Uiso  1.0000
 Li2_B3_n148 Li+    0.500000    0.500000    0.295338    2.000000 Uiso  0.3650
 Li1_B3_n149 Li+    0.000000    0.000000    0.297338    2.000000 Uiso  1.0000
 Li2_B3_n149 Li+    0.500000    0.500000    0.297338    2.000000 Uiso  0.3650
 Li1_B3_n150 Li+    0.000000    0.000000    0.299338    2.000000 Uiso  1.0000
 Li2_B3_n150 Li+    0.500000    0.500000    0.299338    2.000000 Uiso  0.3650
 Li1_B3_n151 Li+    0.000000    0.000000    0.301338    2.000000 Uiso  1.0000
 Li2_B3_n151 Li+    0.500000    0.500000    0.301338    2.000000 Uiso  0.3650
 Li1_B3_n152 Li+    0.000000    0.000000    0.303338    2.000000 Uiso  1.0000
 Li2_B3_n152 Li+    0.500000    0.500000    0.303338    2.000000 Uiso  0.3650
 Li1_B3_n153 Li+    0.000000    0.000000    0.305338    2.000000 Uiso  1.0000
 Li2_B3_n153 Li+    0.500000    0.500000    0.305338    2.000000 Uiso  0.3650
 Li1_B3_n154 Li+    0.000000    0.000000    0.307338    2.000000 Uiso  1.0000
 Li2_B3_n154 Li+    0.500000    0.500000    0.307338    2.000000 Uiso  0.3650
 Li1_B3_n155 Li+    0.000000    0.000000    0.309338    2.000000 Uiso  1.0000
 Li2_B3_n155 Li+    0.500000    0.500000    0.309338    2.000000 Uiso  0.3650
 Li1_B3_n156 Li+    0.000000    0.000000    0.311338    2.000000 Uiso  1.0000
 Li2_B3_n156 Li+    0.500000    0.500000    0.311338    2.000000 Uiso  0.3650
 Li1_B3_n157 Li+    0.000000    0.000000    0.313338    2.000000 Uiso  1.0000
 Li2_B3_n157 Li+    0.500000    0.500000    0.313338    2.000000 Uiso  0.3650
 Li1_B3_n158 Li+    0.000000    0.000000    0.315338    2.000000 Uiso  1.0000
 Li2_B3_n158 Li+    0.500000    0.500000    0.315338    2.000000 Uiso  0.3650
 Li1_B3_n159 Li+    0.000000    0.000000    0.317338    2.000000 Uiso  1.0000
 Li2_B3_n159 Li+    0.500000    0.500000    0.317338    2.000000 Uiso  0.3650
 Li1_B3_n160 Li+    0.000000    0.000000    0.319338    2.000000 Uiso  1.0000
 Li2_B3_n160 Li+    0.500000    0.500000    0.319338    2.000000 Uiso  0.3650
 Li1_B3_n161 Li+    0.000000    0.000000    0.321338    2.000000 Uiso  1.0000
 Li2_B3_n161 Li+    0.500000    0.500000    0.321338    2.000000 Uiso  0.3650
 Li1_B3_n162 Li+    0.000000    0.000000    0.323338    2.000000 Uiso  1.0000
 Li2_B3_n162 Li+    0.500000    0.500000    0.323338    2.000000 Uiso  0.3650
 Li1_B3_n163 Li+    0.000000    0.000000    0.325338    2.000000 Uiso  1.0000
 Li2_B3_n163 Li+    0.500000    0.500000    0.325338    2.000000 Uiso  0.3650
 Li1_B3_n164 Li+    0.000000    0.000000    0.327338    2.000000 Uiso  1.0000
 Li2_B3_n164 Li+    0.500000    0.500000    0.327338    2.000000 Uiso  0.3650
 Li1_B3_n165 Li+    0.000000    0.000000    0.329338    2.000000 Uiso  1.0000
 Li2_B3_n165 Li+    0.500000    0.500000    0.329338    2.000000 Uiso  0.3650
 Li1_B3_n166 Li+    0.000000    0.000000    0.331338    2.000000 Uiso  1.0000
 Li2_B3_n166 Li+    0.500000    0.500000    0.331338    2.000000 Uiso  0.3650
 Li1_B3_n167 Li+    0.000000    0.000000    0.333338    2.000000 Uiso  1.0000
 Li2_B3_n167 Li+    0.500000    0.500000    0.333338    2.000000 Uiso  0.3650
 Li1_B3_n168 Li+    0.000000    0.000000    0.335338    2.000000 Uiso  1.0000
 Li2_B3_n168 Li+    0.500000    0.500000    0.335338    2.000000 Uiso  0.3650
 Li1_B3_n169 Li+    0.000000    0.000000    0.337338    2.000000 Uiso  1.0000
 Li2_B3_n169 Li+    0.500000    0.500000    0.337338    2.000000 Uiso  0.3650
 Li1_B3_n170 Li+    0.000000    0.000000    0.339338    2.000000 Uiso  1.0000
 Li2_B3_n170 Li+    0.500000    0.500000    0.339338    2.000000 Uiso  0.3650
 Li1_B3_n171 Li+    0.000000    0.000000    0.341338    2.000000 Uiso  1.0000
 Li2_B3_n171 Li+    0.500000    0.500000    0.341338    2.000000 Uiso  0.3650
 Li1_B3_n172 Li+    0.000000    0.000000    0.343338    2.000000 Uiso  1.0000
 Li2_B3_n172 Li+    0.500000    0.500000    0.343338    2.000000 Uiso  0.3650
 Li1_B3_n173 Li+    0.000000    0.000000    0.345338    2.000000 Uiso  1.0000
 Li2_B3_n173 Li+    0.500000    0.500000    0.345338    2.000000 Uiso  0.3650
 Li1_B3_n174 Li+    0.000000    0.000000    0.347338    2.000000 Uiso  1.0000
 Li2_B3_n174 Li+    0.500000    0.500000    0.347338    2.000000 Uiso  0.3650
 Li1_B3_n175 Li+    0.000000    0.000000    0.349338    2.000000 Uiso  1.0000
 Li2_B3_n175 Li+    0.500000    0.500000    0.349338    2.000000 Uiso  0.3650
 Li1_B3_n176 Li+    0.000000    0.000000    0.351338    2.000000 Uiso  1.0000
 Li2_B3_n176 Li+    0.500000    0.500000    0.351338    2.000000 Uiso  0.3650
 Li1_B3_n177 Li+    0.000000    0.000000    0.353338    2.000000 Uiso  1.0000
 Li2_B3_n177 Li+    0.500000    0.500000    0.353338    2.000000 Uiso  0.3650
 Li1_B3_n178 Li+    0.000000    0.000000    0.355338    2.000000 Uiso  1.0000
 Li2_B3_n178 Li+    0.500000    0.500000    0.355338    2.000000 Uiso  0.3650
 Li1_B3_n179 Li+    0.000000    0.000000    0.357338    2.000000 Uiso  1.0000
 Li2_B3_n179 Li+    0.500000    0.500000    0.357338    2.000000 Uiso  0.3650
 Li1_B3_n180 Li+    0.000000    0.000000    0.359338    2.000000 Uiso  1.0000
 Li2_B3_n180 Li+    0.500000    0.500000    0.359338    2.000000 Uiso  0.3650
 Li1_B3_n181 Li+    0.000000    0.000000    0.361338    2.000000 Uiso  1.0000
 Li2_B3_n181 Li+    0.500000    0.500000    0.361338    2.000000 Uiso  0.3650
 Li1_B3_n182 Li+    0.000000    0.000000    0.363338    2.000000 Uiso  1.0000
 Li2_B3_n182 Li+    0.500000    0.500000    0.363338    2.000000 Uiso  0.3650
 Li1_B3_n183 Li+    0.000000    0.000000    0.365338    2.000000 Uiso  1.0000
 Li2_B3_n183 Li+    0.500000    0.500000    0.365338    2.000000 Uiso  0.3650
 Li1_B3_n184 Li+    0.000000    0.000000    0.367338    2.000000 Uiso  1.0000
 Li2_B3_n184 Li+    0.500000    0.500000    0.367338    2.000000 Uiso  0.3650
 Li1_B3_n185 Li+    0.000000    0.000000    0.369338    2.000000 Uiso  1.0000
 Li2_B3_n185 Li+    0.500000    0.500000    0.369338    2.000000 Uiso  0.3650
 Li1_B3_n186 Li+    0.000000    0.000000    0.371338    2.000000 Uiso  1.0000
 Li2_B3_n186 Li+    0.500000    0.500000    0.371338    2.000000 Uiso  0.3650
 Li1_B3_n187 Li+    0.000000    0.000000    0.373338    2.000000 Uiso  1.0000
 Li2_B3_n187 Li+    0.500000    0.500000    0.373338    2.000000 Uiso  0.3650
 Li1_B3_n188 Li+    0.000000    0.000000    0.375338    2.000000 Uiso  1.0000
 Li2_B3_n188 Li+    0.500000    0.500000    0.375338    2.000000 Uiso  0.3650
 Li1_B3_n189 Li+    0.000000    0.000000    0.377338    2.000000 Uiso  1.0000
 Li2_B3_n189 Li+    0.500000    0.500000    0.377338    2.000000 Uiso  0.3650
 Li1_B3_n190 Li+    0.000000    0.000000    0.379338    2.000000 Uiso  1.0000
 Li2_B3_n190 Li+    0.500000    0.500000    0.379338    2.000000 Uiso  0.3650
 Li1_B3_n191 Li+    0.000000    0.000000    0.381338    2.000000 Uiso  1.0000
 Li2_B3_n191 Li+    0.500000    0.500000    0.381338    2.000000 Uiso  0.3650
 Li1_B3_n192 Li+    0.000000    0.000000    0.383338    2.000000 Uiso  1.0000
 Li2_B3_n192 Li+    0.500000    0.500000    0.383338    2.000000 Uiso  0.3650
 Li1_B3_n193 Li+    0.000000    0.000000    0.385338    2.000000 Uiso  1.0000
 Li2_B3_n193 Li+    0.500000    0.500000    0.385338    2.000000 Uiso  0.3650
 Li1_B3_n194 Li+    0.000000    0.000000    0.387338    2.000000 Uiso  1.0000
 Li2_B3_n194 Li+    0.500000    0.500000    0.387338    2.000000 Uiso  0.3650
 Li1_B3_n195 Li+    0.000000    0.000000    0.389338    2.000000 Uiso  1.0000
 Li2_B3_n195 Li+    0.500000    0.500000    0.389338    2.000000 Uiso  0.3650
 Li1_B3_n196 Li+    0.000000    0.000000    0.391338    2.000000 Uiso  1.0000
 Li2_B3_n196 Li+    0.500000    0.500000    0.391338    2.000000 Uiso  0.3650
 Li1_B3_n197 Li+    0.000000    0.000000    0.393338    2.000000 Uiso  1.0000
 Li2_B3_n197 Li+    0.500000    0.500000    0.393338    2.000000 Uiso  0.3650
 Li1_B3_n198 Li+    0.000000    0.000000    0.395338    2.000000 Uiso  1.0000
 Li2_B3_n198 Li+    0.500000    0.500000    0.395338    2.000000 Uiso  0.3650
 Li1_B3_n199 Li+    0.000000    0.000000    0.397338    2.000000 Uiso  1.0000
 Li2_B3_n199 Li+    0.500000    0.500000    0.397338    2.000000 Uiso  0.3650
 Li1_B3_n200 Li+    0.000000    0.000000    0.399338    2.000000 Uiso  1.0000
 Li2_B3_n200 Li+    0.500000    0.500000    0.399338    2.000000 Uiso  0.3650
 Li1_B3_n201 Li+    0.000000    0.000000    0.401338    2.000000 Uiso  1.0000
 Li2_B3_n201 Li+    0.500000    0.500000    0.401338    2.000000 Uiso  0.3650
 Li1_B3_n202 Li+    0.000000    0.000000    0.403338    2.000000 Uiso  1.0000
 Li2_B3_n202 Li+    0.500000    0.500000    0.403338    2.000000 Uiso  0.3650
 Li1_B3_n203 Li+    0.000000    0.000000    0.405338    2.000000 Uiso  1.0000
 Li2_B3_n203 Li+    0.500000    0.500000    0.405338    2.000000 Uiso  0.3650
 Li1_B3_n204 Li+    0.000000    0.000000    0.407338    2.000000 Uiso  1.0000
 Li2_B3_n204 Li+    0.500000    0.500000    0.407338    2.000000 Uiso  0.3650
 Li1_B3_n205 Li+    0.000000    0.000000    0.409338    2.000000 Uiso  1.0000
 Li2_B3_n205 Li+    0.500000    0.500000    0.409338    2.000000 Uiso  0.3650
 Li1_B3_n206 Li+    0.000000    0.000000    0.411338    2.000000 Uiso  1.0000
 Li2_B3_n206 Li+    0.500000    0.500000    0.411338    2.000000 Uiso  0.3650
 Li1_B3_n207 Li+    0.000000    0.000000    0.413338    2.000000 Uiso  1.0000
 Li2_B3_n207 Li+    0.500000    0.500000    0.413338    2.000000 Uiso  0.3650
 Li1_B3_n208 Li+    0.000000    0.000000    0.415338    2.000000 Uiso  1.0000
 Li2_B3_n208 Li+    0.500000    0.500000    0.415338    2.000000 Uiso  0.3650
 Li1_B3_n209 Li+    0.000000    0.000000    0.417338    2.000000 Uiso  1.0000
 Li2_B3_n209 Li+    0.500000    0.500000    0.417338    2.000000 Uiso  0.3650
 Li1_B3_n210 Li+    0.000000    0.000000    0.419338    2.000000 Uiso  1.0000
 Li2_B3_n210 Li+    0.500000    0.500000    0.419338    2.000000 Uiso  0.3650
 Li1_B3_n211 Li+    0.000000    0.000000    0.421338    2.000000 Uiso  1.0000
 Li2_B3_n211 Li+    0.500000    0.500000    0.421338    2.000000 Uiso  0.3650
 Li1_B3_n212 Li+    0.000000    0.000000    0.423338    2.000000 Uiso  1.0000
 Li2_B3_n212 Li+    0.500000    0.500000    0.423338    2.000000 Uiso  0.3650
 Li1_B3_n213 Li+    0.000000    0.000000    0.425338    2.000000 Uiso  1.0000
 Li2_B3_n213 Li+    0.500000    0.500000    0.425338    2.000000 Uiso  0.3650
 Li1_B3_n214 Li+    0.000000    0.000000    0.427338    2.000000 Uiso  1.0000
 Li2_B3_n214 Li+    0.500000    0.500000    0.427338    2.000000 Uiso  0.3650
 Li1_B3_n215 Li+    0.000000    0.000000    0.429338    2.000000 Uiso  1.0000
 Li2_B3_n215 Li+    0.500000    0.500000    0.429338    2.000000 Uiso  0.3650
 Li1_B3_n216 Li+    0.000000    0.000000    0.431338    2.000000 Uiso  1.0000
 Li2_B3_n216 Li+    0.500000    0.500000    0.431338    2.000000 Uiso  0.3650
 Li1_B3_n217 Li+    0.000000    0.000000    0.433338    2.000000 Uiso  1.0000
 Li2_B3_n217 Li+    0.500000    0.500000    0.433338    2.000000 Uiso  0.3650
 Li1_B3_n218 Li+    0.000000    0.000000    0.435338    2.000000 Uiso  1.0000
 Li2_B3_n218 Li+    0.500000    0.500000    0.435338    2.000000 Uiso  0.3650
 Li1_B3_n219 Li+    0.000000    0.000000    0.437338    2.000000 Uiso  1.0000
 Li2_B3_n219 Li+    0.500000    0.500000    0.437338    2.000000 Uiso  0.3650
 Li1_B3_n220 Li+    0.000000    0.000000    0.439338    2.000000 Uiso  1.0000
 Li2_B3_n220 Li+    0.500000    0.500000    0.439338    2.000000 Uiso  0.3650
 Li1_B3_n221 Li+    0.000000    0.000000    0.441338    2.000000 Uiso  1.0000
 Li2_B3_n221 Li+    0.500000    0.500000    0.441338    2.000000 Uiso  0.3650
 Li1_B3_n222 Li+    0.000000    0.000000    0.443338    2.000000 Uiso  1.0000
 Li2_B3_n222 Li+    0.500000    0.500000    0.443338    2.000000 Uiso  0.3650
 Li1_B3_n223 Li+    0.000000    0.000000    0.445338    2.000000 Uiso  1.0000
 Li2_B3_n223 Li+    0.500000    0.500000    0.445338    2.000000 Uiso  0.3650
 Li1_B3_n224 Li+    0.000000    0.000000    0.447338    2.000000 Uiso  1.0000
 Li2_B3_n224 Li+    0.500000    0.500000    0.447338    2.000000 Uiso  0.3650
 Li1_B3_n225 Li+    0.000000    0.000000    0.449338    2.000000 Uiso  1.0000
 Li2_B3_n225 Li+    0.500000    0.500000    0.449338    2.000000 Uiso  0.3650
 Li1_B3_n226 Li+    0.000000    0.000000    0.451338    2.000000 Uiso  1.0000
 Li2_B3_n226 Li+    0.500000    0.500000    0.451338    2.000000 Uiso  0.3650
 Li1_B3_n227 Li+    0.000000    0.000000    0.453338    2.000000 Uiso  1.0000
 Li2_B3_n227 Li+    0.500000    0.500000    0.453338    2.000000 Uiso  0.3650
 Li1_B3_n228 Li+    0.000000    0.000000    0.455338    2.000000 Uiso  1.0000
 Li2_B3_n228 Li+    0.500000    0.500000    0.455338    2.000000 Uiso  0.3650
 Li1_B3_n229 Li+    0.000000    0.000000    0.457338    2.000000 Uiso  1.0000
 Li2_B3_n229 Li+    0.500000    0.500000    0.457338    2.000000 Uiso  0.3650
 Li1_B3_n230 Li+    0.000000    0.000000    0.459338    2.000000 Uiso  1.0000
 Li2_B3_n230 Li+    0.500000    0.500000    0.459338    2.000000 Uiso  0.3650
 Li1_B3_n231 Li+    0.000000    0.000000    0.461338    2.000000 Uiso  1.0000
 Li2_B3_n231 Li+    0.500000    0.500000    0.461338    2.000000 Uiso  0.3650
 Li1_B3_n232 Li+    0.000000    0.000000    0.463338    2.000000 Uiso  1.0000
 Li2_B3_n232 Li+    0.500000    0.500000    0.463338    2.000000 Uiso  0.3650
 Li1_B3_n233 Li+    0.000000    0.000000    0.465338    2.000000 Uiso  1.0000
 Li2_B3_n233 Li+    0.500000    0.500000    0.465338    2.000000 Uiso  0.3650
 Li1_B3_n234 Li+    0.000000    0.000000    0.467338    2.000000 Uiso  1.0000
 Li2_B3_n234 Li+    0.500000    0.500000    0.467338    2.000000 Uiso  0.3650
 Li1_B3_n235 Li+    0.000000    0.000000    0.469338    2.000000 Uiso  1.0000
 Li2_B3_n235 Li+    0.500000    0.500000    0.469338    2.000000 Uiso  0.3650
 Li1_B3_n236 Li+    0.000000    0.000000    0.471338    2.000000 Uiso  1.0000
 Li2_B3_n236 Li+    0.500000    0.500000    0.471338    2.000000 Uiso  0.3650
 Li1_B3_n237 Li+    0.000000    0.000000    0.473338    2.000000 Uiso  1.0000
 Li2_B3_n237 Li+    0.500000    0.500000    0.473338    2.000000 Uiso  0.3650
 Li1_B3_n238 Li+    0.000000    0.000000    0.475338    2.000000 Uiso  1.0000
 Li2_B3_n238 Li+    0.500000    0.500000    0.475338    2.000000 Uiso  0.3650
 Li1_B3_n239 Li+    0.000000    0.000000    0.477338    2.000000 Uiso  1.0000
 Li2_B3_n239 Li+    0.500000    0.500000    0.477338    2.000000 Uiso  0.3650
 Li1_B3_n240 Li+    0.000000    0.000000    0.479338    2.000000 Uiso  1.0000
 Li2_B3_n240 Li+    0.500000    0.500000    0.479338    2.000000 Uiso  0.3650
 Li1_B3_n241 Li+    0.000000    0.000000    0.481338    2.000000 Uiso  1.0000
 Li2_B3_n241 Li+    0.500000    0.500000    0.481338    2.000000 Uiso  0.3650
 Li1_B3_n242 Li+    0.000000    0.000000    0.483338    2.000000 Uiso  1.0000
 Li2_B3_n242 Li+    0.500000    0.500000    0.483338    2.000000 Uiso  0.3650
 Li1_B3_n243 Li+    0.000000    0.000000    0.485338    2.000000 Uiso  1.0000
 Li2_B3_n243 Li+    0.500000    0.500000    0.485338    2.000000 Uiso  0.3650
 Li1_B3_n244 Li+    0.000000    0.000000    0.487338    2.000000 Uiso  1.0000
 Li2_B3_n244 Li+    0.500000    0.500000    0.487338    2.000000 Uiso  0.3650
 Li1_B3_n245 Li+    0.000000    0.000000    0.489338    2.000000 Uiso  1.0000
 Li2_B3_n245 Li+    0.500000    0.500000    0.489338    2.000000 Uiso  0.3650
 Li1_B3_n246 Li+    0.000000    0.000000    0.491338    2.000000 Uiso  1.0000
 Li2_B3_n246 Li+    0.500000    0.500000    0.491338    2.000000 Uiso  0.3650
 Li1_B3_n247 Li+    0.000000    0.000000    0.493338    2.000000 Uiso  1.0000
 Li2_B3_n247 Li+    0.500000    0.500000    0.493338    2.000000 Uiso  0.3650
 Li1_B3_n248 Li+    0.000000    0.000000    0.495338    2.000000 Uiso  1.0000
 Li2_B3_n248 Li+    0.500000    0.500000    0.495338    2.000000 Uiso  0.3650
 Li1_B3_n249 Li+    0.000000    0.000000    0.497338    2.000000 Uiso  1.0000
 Li2_B3_n249 Li+    0.500000    0.500000    0.497338    2.000000 Uiso  0.3650
 Li1_B3_n250 Li+    0.000000    0.000000    0.499338    2.000000 Uiso  1.0000
 Li2_B3_n250 Li+    0.500000    0.500000    0.499338    2.000000 Uiso  0.3650
 Li1_B3_n251 Li+    0.000000    0.000000    0.501338    2.000000 Uiso  1.0000
 Li2_B3_n251 Li+    0.500000    0.500000    0.501338    2.000000 Uiso  0.3650
 Li1_B3_n252 Li+    0.000000    0.000000    0.503338    2.000000 Uiso  1.0000
 Li2_B3_n252 Li+    0.500000    0.500000    0.503338    2.000000 Uiso  0.3650
 Li1_B3_n253 Li+    0.000000    0.000000    0.505338    2.000000 Uiso  1.0000
 Li2_B3_n253 Li+    0.500000    0.500000    0.505338    2.000000 Uiso  0.3650
 Li1_B3_n254 Li+    0.000000    0.000000    0.507338    2.000000 Uiso  1.0000
 Li2_B3_n254 Li+    0.500000    0.500000    0.507338    2.000000 Uiso  0.3650
 Li1_B3_n255 Li+    0.000000    0.000000    0.509338    2.000000 Uiso  1.0000
 Li2_B3_n255 Li+    0.500000    0.500000    0.509338    2.000000 Uiso  0.3650
 Li1_B3_n256 Li+    0.000000    0.000000    0.511338    2.000000 Uiso  1.0000
 Li2_B3_n256 Li+    0.500000    0.500000    0.511338    2.000000 Uiso  0.3650
 Li1_B3_n257 Li+    0.000000    0.000000    0.513338    2.000000 Uiso  1.0000
 Li2_B3_n257 Li+    0.500000    0.500000    0.513338    2.000000 Uiso  0.3650
 Li1_B3_n258 Li+    0.000000    0.000000    0.515338    2.000000 Uiso  1.0000
 Li2_B3_n258 Li+    0.500000    0.500000    0.515338    2.000000 Uiso  0.3650
 Li1_B3_n259 Li+    0.000000    0.000000    0.517338    2.000000 Uiso  1.0000
 Li2_B3_n259 Li+    0.500000    0.500000    0.517338    2.000000 Uiso  0.3650
 Li1_B3_n260 Li+    0.000000    0.000000    0.519338    2.000000 Uiso  1.0000
 Li2_B3_n260 Li+    0.500000    0.500000    0.519338    2.000000 Uiso  0.3650
 Li1_B3_n261 Li+    0.000000    0.000000    0.521338    2.000000 Uiso  1.0000
 Li2_B3_n261 Li+    0.500000    0.500000    0.521338    2.000000 Uiso  0.3650
 Li1_B3_n262 Li+    0.000000    0.000000    0.523338    2.000000 Uiso  1.0000
 Li2_B3_n262 Li+    0.500000    0.500000    0.523338    2.000000 Uiso  0.3650
 Li1_B3_n263 Li+    0.000000    0.000000    0.525338    2.000000 Uiso  1.0000
 Li2_B3_n263 Li+    0.500000    0.500000    0.525338    2.000000 Uiso  0.3650
 Li1_B3_n264 Li+    0.000000    0.000000    0.527338    2.000000 Uiso  1.0000
 Li2_B3_n264 Li+    0.500000    0.500000    0.527338    2.000000 Uiso  0.3650
 Li1_B3_n265 Li+    0.000000    0.000000    0.529338    2.000000 Uiso  1.0000
 Li2_B3_n265 Li+    0.500000    0.500000    0.529338    2.000000 Uiso  0.3650
 Li1_B3_n266 Li+    0.000000    0.000000    0.531338    2.000000 Uiso  1.0000
 Li2_B3_n266 Li+    0.500000    0.500000    0.531338    2.000000 Uiso  0.3650
 Li1_B3_n267 Li+    0.000000    0.000000    0.533338    2.000000 Uiso  1.0000
 Li2_B3_n267 Li+    0.500000    0.500000    0.533338    2.000000 Uiso  0.3650
 Li1_B3_n268 Li+    0.000000    0.000000    0.535338    2.000000 Uiso  1.0000
 Li2_B3_n268 Li+    0.500000    0.500000    0.535338    2.000000 Uiso  0.3650
 Li1_B3_n269 Li+    0.000000    0.000000    0.537338    2.000000 Uiso  1.0000
 Li2_B3_n269 Li+    0.500000    0.500000    0.537338    2.000000 Uiso  0.3650
 Li1_B3_n270 Li+    0.000000    0.000000    0.539338    2.000000 Uiso  1.0000
 Li2_B3_n270 Li+    0.500000    0.500000    0.539338    2.000000 Uiso  0.3650
 Li1_B3_n271 Li+    0.000000    0.000000    0.541338    2.000000 Uiso  1.0000
 Li2_B3_n271 Li+    0.500000    0.500000    0.541338    2.000000 Uiso  0.3650
 Li1_B3_n272 Li+    0.000000    0.000000    0.543338    2.000000 Uiso  1.0000
 Li2_B3_n272 Li+    0.500000    0.500000    0.543338    2.000000 Uiso  0.3650
 Li1_B3_n273 Li+    0.000000    0.000000    0.545338    2.000000 Uiso  1.0000
 Li2_B3_n273 Li+    0.500000    0.500000    0.545338    2.000000 Uiso  0.3650
 Li1_B3_n274 Li+    0.000000    0.000000    0.547338    2.000000 Uiso  1.0000
 Li2_B3_n274 Li+    0.500000    0.500000    0.547338    2.000000 Uiso  0.3650
 Li1_B3_n275 Li+    0.000000    0.000000    0.549338    2.000000 Uiso  1.0000
 Li2_B3_n275 Li+    0.500000    0.500000    0.549338    2.000000 Uiso  0.3650
 Li1_B3_n276 Li+    0.000000    0.000000    0.551338    2.000000 Uiso  1.0000
 Li2_B3_n276 Li+    0.500000    0.500000    0.551338    2.000000 Uiso  0.3650
 Li1_B3_n277 Li+    0.000000    0.000000    0.553338    2.000000 Uiso  1.0000
 Li2_B3_n277 Li+    0.500000    0.500000    0.553338    2.000000 Uiso  0.3650
 Li1_B3_n278 Li+    0.000000    0.000000    0.555338    2.000000 Uiso  1.0000
 Li2_B3_n278 Li+    0.500000    0.500000    0.555338    2.000000 Uiso  0.3650
 Li1_B3_n279 Li+    0.000000    0.000000    0.557338    2.000000 Uiso  1.0000
 Li2_B3_n279 Li+    0.500000    0.500000    0.557338    2.000000 Uiso  0.3650
 Li1_B3_n280 Li+    0.000000    0.000000    0.559338    2.000000 Uiso  1.0000
 Li2_B3_n280 Li+    0.500000    0.500000    0.559338    2.000000 Uiso  0.3650
 Li1_B3_n281 Li+    0.000000    0.000000    0.561338    2.000000 Uiso  1.0000
 Li2_B3_n281 Li+    0.500000    0.500000    0.561338    2.000000 Uiso  0.3650
 Li1_B3_n282 Li+    0.000000    0.000000    0.563338    2.000000 Uiso  1.0000
 Li2_B3_n282 Li+    0.500000    0.500000    0.563338    2.000000 Uiso  0.3650
 Li1_B3_n283 Li+    0.000000    0.000000    0.565338    2.000000 Uiso  1.0000
 Li2_B3_n283 Li+    0.500000    0.500000    0.565338    2.000000 Uiso  0.3650
 Li1_B3_n284 Li+    0.000000    0.000000    0.567338    2.000000 Uiso  1.0000
 Li2_B3_n284 Li+    0.500000    0.500000    0.567338    2.000000 Uiso  0.3650
 Li1_B3_n285 Li+    0.000000    0.000000    0.569338    2.000000 Uiso  1.0000
 Li2_B3_n285 Li+    0.500000    0.500000    0.569338    2.000000 Uiso  0.3650
 Li1_B3_n286 Li+    0.000000    0.000000    0.571338    2.000000 Uiso  1.0000
 Li2_B3_n286 Li+    0.500000    0.500000    0.571338    2.000000 Uiso  0.3650
 Li1_B3_n287 Li+    0.000000    0.000000    0.573338    2.000000 Uiso  1.0000
 Li2_B3_n287 Li+    0.500000    0.500000    0.573338    2.000000 Uiso  0.3650
 Li1_B3_n288 Li+    0.000000    0.000000    0.575338    2.000000 Uiso  1.0000
 Li2_B3_n288 Li+    0.500000    0.500000    0.575338    2.000000 Uiso  0.3650
 Li1_B3_n289 Li+    0.000000    0.000000    0.577338    2.000000 Uiso  1.0000
 Li2_B3_n289 Li+    0.500000    0.500000    0.577338    2.000000 Uiso  0.3650
 Li1_B3_n290 Li+    0.000000    0.000000    0.579338    2.000000 Uiso  1.0000
 Li2_B3_n290 Li+    0.500000    0.500000    0.579338    2.000000 Uiso  0.3650
 Li1_B3_n291 Li+    0.000000    0.000000    0.581338    2.000000 Uiso  1.0000
 Li2_B3_n291 Li+    0.500000    0.500000    0.581338    2.000000 Uiso  0.3650
 Li1_B3_n292 Li+    0.000000    0.000000    0.583338    2.000000 Uiso  1.0000
 Li2_B3_n292 Li+    0.500000    0.500000    0.583338    2.000000 Uiso  0.3650
 Li1_B3_n293 Li+    0.000000    0.000000    0.585338    2.000000 Uiso  1.0000
 Li2_B3_n293 Li+    0.500000    0.500000    0.585338    2.000000 Uiso  0.3650
 Li1_B3_n294 Li+    0.000000    0.000000    0.587338    2.000000 Uiso  1.0000
 Li2_B3_n294 Li+    0.500000    0.500000    0.587338    2.000000 Uiso  0.3650
 Li1_B3_n295 Li+    0.000000    0.000000    0.589338    2.000000 Uiso  1.0000
 Li2_B3_n295 Li+    0.500000    0.500000    0.589338    2.000000 Uiso  0.3650
 Li1_B3_n296 Li+    0.000000    0.000000    0.591338    2.000000 Uiso  1.0000
 Li2_B3_n296 Li+    0.500000    0.500000    0.591338    2.000000 Uiso  0.3650
 Li1_B3_n297 Li+    0.000000    0.000000    0.593338    2.000000 Uiso  1.0000
 Li2_B3_n297 Li+    0.500000    0.500000    0.593338    2.000000 Uiso  0.3650
 Li1_B3_n298 Li+    0.000000    0.000000    0.595338    2.000000 Uiso  1.0000
 Li2_B3_n298 Li+    0.500000    0.500000    0.595338    2.000000 Uiso  0.3650
 Li1_B3_n299 Li+    0.000000    0.000000    0.597338    2.000000 Uiso  1.0000
 Li2_B3_n299 Li+    0.500000    0.500000    0.597338    2.000000 Uiso  0.3650
 Li1_B3_n300 Li+    0.000000    0.000000    0.599338    2.000000 Uiso  1.0000
 Li2_B3_n300 Li+    0.500000    0.500000    0.599338    2.000000 Uiso  0.3650
 Li1_B3_n301 Li+    0.000000    0.000000    0.601338    2.000000 Uiso  1.0000
 Li2_B3_n301 Li+    0.500000    0.500000    0.601338    2.000000 Uiso  0.3650
 Li1_B3_n302 Li+    0.000000    0.000000    0.603338    2.000000 Uiso  1.0000
 Li2_B3_n302 Li+    0.500000    0.500000    0.603338    2.000000 Uiso  0.3650
 Li1_B3_n303 Li+    0.000000    0.000000    0.605338    2.000000 Uiso  1.0000
 Li2_B3_n303 Li+    0.500000    0.500000    0.605338    2.000000 Uiso  0.3650
 Li1_B3_n304 Li+    0.000000    0.000000    0.607338    2.000000 Uiso  1.0000
 Li2_B3_n304 Li+    0.500000    0.500000    0.607338    2.000000 Uiso  0.3650
 Li1_B3_n305 Li+    0.000000    0.000000    0.609338    2.000000 Uiso  1.0000
 Li2_B3_n305 Li+    0.500000    0.500000    0.609338    2.000000 Uiso  0.3650
 Li1_B3_n306 Li+    0.000000    0.000000    0.611338    2.000000 Uiso  1.0000
 Li2_B3_n306 Li+    0.500000    0.500000    0.611338    2.000000 Uiso  0.3650
 Li1_B3_n307 Li+    0.000000    0.000000    0.613338    2.000000 Uiso  1.0000
 Li2_B3_n307 Li+    0.500000    0.500000    0.613338    2.000000 Uiso  0.3650
 Li1_B3_n308 Li+    0.000000    0.000000    0.615338    2.000000 Uiso  1.0000
 Li2_B3_n308 Li+    0.500000    0.500000    0.615338    2.000000 Uiso  0.3650
 Li1_B3_n309 Li+    0.000000    0.000000    0.617338    2.000000 Uiso  1.0000
 Li2_B3_n309 Li+    0.500000    0.500000    0.617338    2.000000 Uiso  0.3650
 Li1_B3_n310 Li+    0.000000    0.000000    0.619338    2.000000 Uiso  1.0000
 Li2_B3_n310 Li+    0.500000    0.500000    0.619338    2.000000 Uiso  0.3650
 Li1_B3_n311 Li+    0.000000    0.000000    0.621338    2.000000 Uiso  1.0000
 Li2_B3_n311 Li+    0.500000    0.500000    0.621338    2.000000 Uiso  0.3650
 Li1_B3_n312 Li+    0.000000    0.000000    0.623338    2.000000 Uiso  1.0000
 Li2_B3_n312 Li+    0.500000    0.500000    0.623338    2.000000 Uiso  0.3650
 Li1_B3_n313 Li+    0.000000    0.000000    0.625338    2.000000 Uiso  1.0000
 Li2_B3_n313 Li+    0.500000    0.500000    0.625338    2.000000 Uiso  0.3650
 Li1_B3_n314 Li+    0.000000    0.000000    0.627338    2.000000 Uiso  1.0000
 Li2_B3_n314 Li+    0.500000    0.500000    0.627338    2.000000 Uiso  0.3650
 Li1_B3_n315 Li+    0.000000    0.000000    0.629338    2.000000 Uiso  1.0000
 Li2_B3_n315 Li+    0.500000    0.500000    0.629338    2.000000 Uiso  0.3650
 Li1_B3_n316 Li+    0.000000    0.000000    0.631338    2.000000 Uiso  1.0000
 Li2_B3_n316 Li+    0.500000    0.500000    0.631338    2.000000 Uiso  0.3650
 Li1_B3_n317 Li+    0.000000    0.000000    0.633338    2.000000 Uiso  1.0000
 Li2_B3_n317 Li+    0.500000    0.500000    0.633338    2.000000 Uiso  0.3650
 Li1_B3_n318 Li+    0.000000    0.000000    0.635338    2.000000 Uiso  1.0000
 Li2_B3_n318 Li+    0.500000    0.500000    0.635338    2.000000 Uiso  0.3650
 Li1_B3_n319 Li+    0.000000    0.000000    0.637338    2.000000 Uiso  1.0000
 Li2_B3_n319 Li+    0.500000    0.500000    0.637338    2.000000 Uiso  0.3650
 Li1_B3_n320 Li+    0.000000    0.000000    0.639338    2.000000 Uiso  1.0000
 Li2_B3_n320 Li+    0.500000    0.500000    0.639338    2.000000 Uiso  0.3650
 Li1_B3_n321 Li+    0.000000    0.000000    0.641338    2.000000 Uiso  1.0000
 Li2_B3_n321 Li+    0.500000    0.500000    0.641338    2.000000 Uiso  0.3650
 Li1_B3_n322 Li+    0.000000    0.000000    0.643338    2.000000 Uiso  1.0000
 Li2_B3_n322 Li+    0.500000    0.500000    0.643338    2.000000 Uiso  0.3650
 Li1_B3_n323 Li+    0.000000    0.000000    0.645338    2.000000 Uiso  1.0000
 Li2_B3_n323 Li+    0.500000    0.500000    0.645338    2.000000 Uiso  0.3650
 Li1_B3_n324 Li+    0.000000    0.000000    0.647338    2.000000 Uiso  1.0000
 Li2_B3_n324 Li+    0.500000    0.500000    0.647338    2.000000 Uiso  0.3650
 Li1_B3_n325 Li+    0.000000    0.000000    0.649338    2.000000 Uiso  1.0000
 Li2_B3_n325 Li+    0.500000    0.500000    0.649338    2.000000 Uiso  0.3650
 Li1_B3_n326 Li+    0.000000    0.000000    0.651338    2.000000 Uiso  1.0000
 Li2_B3_n326 Li+    0.500000    0.500000    0.651338    2.000000 Uiso  0.3650
 Li1_B3_n327 Li+    0.000000    0.000000    0.653338    2.000000 Uiso  1.0000
 Li2_B3_n327 Li+    0.500000    0.500000    0.653338    2.000000 Uiso  0.3650
 Li1_B3_n328 Li+    0.000000    0.000000    0.655338    2.000000 Uiso  1.0000
 Li2_B3_n328 Li+    0.500000    0.500000    0.655338    2.000000 Uiso  0.3650
 Li1_B3_n329 Li+    0.000000    0.000000    0.657338    2.000000 Uiso  1.0000
 Li2_B3_n329 Li+    0.500000    0.500000    0.657338    2.000000 Uiso  0.3650
 Li1_B3_n330 Li+    0.000000    0.000000    0.659338    2.000000 Uiso  1.0000
 Li2_B3_n330 Li+    0.500000    0.500000    0.659338    2.000000 Uiso  0.3650
 Li1_B3_n331 Li+    0.000000    0.000000    0.661338    2.000000 Uiso  1.0000
 Li2_B3_n331 Li+    0.500000    0.500000    0.661338    2.000000 Uiso  0.3650
 Li1_B3_n332 Li+    0.000000    0.000000    0.663338    2.000000 Uiso  1.0000
 Li2_B3_n332 Li+    0.500000    0.500000    0.663338    2.000000 Uiso  0.3650
 Li1_B3_n333 Li+    0.000000    0.000000    0.665338    2.000000 Uiso  1.0000
 Li2_B3_n333 Li+    0.500000    0.500000    0.665338    2.000000 Uiso  0.3650
 Li1_B3_n334 Li+    0.000000    0.000000    0.667338    2.000000 Uiso  1.0000
 Li2_B3_n334 Li+    0.500000    0.500000    0.667338    2.000000 Uiso  0.3650
 Li1_B3_n335 Li+    0.000000    0.000000    0.669338    2.000000 Uiso  1.0000
 Li2_B3_n335 Li+    0.500000    0.500000    0.669338    2.000000 Uiso  0.3650
 Li1_B3_n336 Li+    0.000000    0.000000    0.671338    2.000000 Uiso  1.0000
 Li2_B3_n336 Li+    0.500000    0.500000    0.671338    2.000000 Uiso  0.3650
 Li1_B3_n337 Li+    0.000000    0.000000    0.673338    2.000000 Uiso  1.0000
 Li2_B3_n337 Li+    0.500000    0.500000    0.673338    2.000000 Uiso  0.3650
 Li1_B3_n338 Li+    0.000000    0.000000    0.675338    2.000000 Uiso  1.0000
 Li2_B3_n338 Li+    0.500000    0.500000    0.675338    2.000000 Uiso  0.3650
 Li1_B3_n339 Li+    0.000000    0.000000    0.677338    2.000000 Uiso  1.0000
 Li2_B3_n339 Li+    0.500000    0.500000    0.677338    2.000000 Uiso  0.3650
 Li1_B3_n340 Li+    0.000000    0.000000    0.679338    2.000000 Uiso  1.0000
 Li2_B3_n340 Li+    0.500000    0.500000    0.679338    2.000000 Uiso  0.3650
 Li1_B3_n341 Li+    0.000000    0.000000    0.681338    2.000000 Uiso  1.0000
 Li2_B3_n341 Li+    0.500000    0.500000    0.681338    2.000000 Uiso  0.3650
 Li1_B3_n342 Li+    0.000000    0.000000    0.683338    2.000000 Uiso  1.0000
 Li2_B3_n342 Li+    0.500000    0.500000    0.683338    2.000000 Uiso  0.3650
 Li1_B3_n343 Li+    0.000000    0.000000    0.685338    2.000000 Uiso  1.0000
 Li2_B3_n343 Li+    0.500000    0.500000    0.685338    2.000000 Uiso  0.3650
 Li1_B3_n344 Li+    0.000000    0.000000    0.687338    2.000000 Uiso  1.0000
 Li2_B3_n344 Li+    0.500000    0.500000    0.687338    2.000000 Uiso  0.3650
 Li1_B3_n345 Li+    0.000000    0.000000    0.689338    2.000000 Uiso  1.0000
 Li2_B3_n345 Li+    0.500000    0.500000    0.689338    2.000000 Uiso  0.3650
 Li1_B3_n346 Li+    0.000000    0.000000    0.691338    2.000000 Uiso  1.0000
 Li2_B3_n346 Li+    0.500000    0.500000    0.691338    2.000000 Uiso  0.3650
 Li1_B3_n347 Li+    0.000000    0.000000    0.693338    2.000000 Uiso  1.0000
 Li2_B3_n347 Li+    0.500000    0.500000    0.693338    2.000000 Uiso  0.3650
 Li1_B3_n348 Li+    0.000000    0.000000    0.695338    2.000000 Uiso  1.0000
 Li2_B3_n348 Li+    0.500000    0.500000    0.695338    2.000000 Uiso  0.3650
 Li1_B3_n349 Li+    0.000000    0.000000    0.697338    2.000000 Uiso  1.0000
 Li2_B3_n349 Li+    0.500000    0.500000    0.697338    2.000000 Uiso  0.3650
 Li1_B3_n350 Li+    0.000000    0.000000    0.699338    2.000000 Uiso  1.0000
 Li2_B3_n350 Li+    0.500000    0.500000    0.699338    2.000000 Uiso  0.3650
 Li1_B3_n351 Li+    0.000000    0.000000    0.701338    2.000000 Uiso  1.0000
 Li2_B3_n351 Li+    0.500000    0.500000    0.701338    2.000000 Uiso  0.3650
 Li1_B3_n352 Li+    0.000000    0.000000    0.703338    2.000000 Uiso  1.0000
 Li2_B3_n352 Li+    0.500000    0.500000    0.703338    2.000000 Uiso  0.3650
 Li1_B3_n353 Li+    0.000000    0.000000    0.705338    2.000000 Uiso  1.0000
 Li2_B3_n353 Li+    0.500000    0.500000    0.705338    2.000000 Uiso  0.3650
 Li1_B3_n354 Li+    0.000000    0.000000    0.707338    2.000000 Uiso  1.0000
 Li2_B3_n354 Li+    0.500000    0.500000    0.707338    2.000000 Uiso  0.3650
 Li1_B3_n355 Li+    0.000000    0.000000    0.709338    2.000000 Uiso  1.0000
 Li2_B3_n355 Li+    0.500000    0.500000    0.709338    2.000000 Uiso  0.3650
 Li1_B3_n356 Li+    0.000000    0.000000    0.711338    2.000000 Uiso  1.0000
 Li2_B3_n356 Li+    0.500000    0.500000    0.711338    2.000000 Uiso  0.3650
 Li1_B3_n357 Li+    0.000000    0.000000    0.713338    2.000000 Uiso  1.0000
 Li2_B3_n357 Li+    0.500000    0.500000    0.713338    2.000000 Uiso  0.3650
 Li1_B3_n358 Li+    0.000000    0.000000    0.715338    2.000000 Uiso  1.0000
 Li2_B3_n358 Li+    0.500000    0.500000    0.715338    2.000000 Uiso  0.3650
 Li1_B3_n359 Li+    0.000000    0.000000    0.717338    2.000000 Uiso  1.0000
 Li2_B3_n359 Li+    0.500000    0.500000    0.717338    2.000000 Uiso  0.3650
 Li1_B3_n360 Li+    0.000000    0.000000    0.719338    2.000000 Uiso  1.0000
 Li2_B3_n360 Li+    0.500000    0.500000    0.719338    2.000000 Uiso  0.3650
 Li1_B3_n361 Li+    0.000000    0.000000    0.721338    2.000000 Uiso  1.0000
 Li2_B3_n361 Li+    0.500000    0.500000    0.721338    2.000000 Uiso  0.3650
 Li1_B3_n362 Li+    0.000000    0.000000    0.723338    2.000000 Uiso  1.0000
 Li2_B3_n362 Li+    0.500000    0.500000    0.723338    2.000000 Uiso  0.3650
 Li1_B3_n363 Li+    0.000000    0.000000    0.725338    2.000000 Uiso  1.0000
 Li2_B3_n363 Li+    0.500000    0.500000    0.725338    2.000000 Uiso  0.3650
 Li1_B3_n364 Li+    0.000000    0.000000    0.727338    2.000000 Uiso  1.0000
 Li2_B3_n364 Li+    0.500000    0.500000    0.727338    2.000000 Uiso  0.3650
 Li1_B3_n365 Li+    0.000000    0.000000    0.729338    2.000000 Uiso  1.0000
 Li2_B3_n365 Li+    0.500000    0.500000    0.729338    2.000000 Uiso  0.3650
 Li1_B3_n366 Li+    0.000000    0.000000    0.731338    2.000000 Uiso  1.0000
 Li2_B3_n366 Li+    0.500000    0.500000    0.731338    2.000000 Uiso  0.3650
 Li1_B3_n367 Li+    0.000000    0.000000    0.733338    2.000000 Uiso  1.0000
 Li2_B3_n367 Li+    0.500000    0.500000    0.733338    2.000000 Uiso  0.3650
 Li1_B3_n368 Li+    0.000000    0.000000    0.735338    2.000000 Uiso  1.0000
 Li2_B3_n368 Li+    0.500000    0.500000    0.735338    2.000000 Uiso  0.3650
 Li1_B3_n369 Li+    0.000000    0.000000    0.737338    2.000000 Uiso  1.0000
 Li2_B3_n369 Li+    0.500000    0.500000    0.737338    2.000000 Uiso  0.3650
 Li1_B3_n370 Li+    0.000000    0.000000    0.739338    2.000000 Uiso  1.0000
 Li2_B3_n370 Li+    0.500000    0.500000    0.739338    2.000000 Uiso  0.3650
 Li1_B3_n371 Li+    0.000000    0.000000    0.741338    2.000000 Uiso  1.0000
 Li2_B3_n371 Li+    0.500000    0.500000    0.741338    2.000000 Uiso  0.3650
 Li1_B3_n372 Li+    0.000000    0.000000    0.743338    2.000000 Uiso  1.0000
 Li2_B3_n372 Li+    0.500000    0.500000    0.743338    2.000000 Uiso  0.3650
 Li1_B3_n373 Li+    0.000000    0.000000    0.745338    2.000000 Uiso  1.0000
 Li2_B3_n373 Li+    0.500000    0.500000    0.745338    2.000000 Uiso  0.3650
 Li1_B3_n374 Li+    0.000000    0.000000    0.747338    2.000000 Uiso  1.0000
 Li2_B3_n374 Li+    0.500000    0.500000    0.747338    2.000000 Uiso  0.3650
 Li1_B3_n375 Li+    0.000000    0.000000    0.749338    2.000000 Uiso  1.0000
 Li2_B3_n375 Li+    0.500000    0.500000    0.749338    2.000000 Uiso  0.3650
 Li1_B3_n376 Li+    0.000000    0.000000    0.751338    2.000000 Uiso  1.0000
 Li2_B3_n376 Li+    0.500000    0.500000    0.751338    2.000000 Uiso  0.3650
 Li1_B3_n377 Li+    0.000000    0.000000    0.753338    2.000000 Uiso  1.0000
 Li2_B3_n377 Li+    0.500000    0.500000    0.753338    2.000000 Uiso  0.3650
 Li1_B3_n378 Li+    0.000000    0.000000    0.755338    2.000000 Uiso  1.0000
 Li2_B3_n378 Li+    0.500000    0.500000    0.755338    2.000000 Uiso  0.3650
 Li1_B3_n379 Li+    0.000000    0.000000    0.757338    2.000000 Uiso  1.0000
 Li2_B3_n379 Li+    0.500000    0.500000    0.757338    2.000000 Uiso  0.3650
 Li1_B3_n380 Li+    0.000000    0.000000    0.759338    2.000000 Uiso  1.0000
 Li2_B3_n380 Li+    0.500000    0.500000    0.759338    2.000000 Uiso  0.3650
 Li1_B3_n381 Li+    0.000000    0.000000    0.761338    2.000000 Uiso  1.0000
 Li2_B3_n381 Li+    0.500000    0.500000    0.761338    2.000000 Uiso  0.3650
 Li1_B3_n382 Li+    0.000000    0.000000    0.763338    2.000000 Uiso  1.0000
 Li2_B3_n382 Li+    0.500000    0.500000    0.763338    2.000000 Uiso  0.3650
 Li1_B3_n383 Li+    0.000000    0.000000    0.765338    2.000000 Uiso  1.0000
 Li2_B3_n383 Li+    0.500000    0.500000    0.765338    2.000000 Uiso  0.3650
 Li1_B3_n384 Li+    0.000000    0.000000    0.767338    2.000000 Uiso  1.0000
 Li2_B3_n384 Li+    0.500000    0.500000    0.767338    2.000000 Uiso  0.3650
 Li1_B3_n385 Li+    0.000000    0.000000    0.769338    2.000000 Uiso  1.0000
 Li2_B3_n385 Li+    0.500000    0.500000    0.769338    2.000000 Uiso  0.3650
 Li1_B3_n386 Li+    0.000000    0.000000    0.771338    2.000000 Uiso  1.0000
 Li2_B3_n386 Li+    0.500000    0.500000    0.771338    2.000000 Uiso  0.3650
 Li1_B3_n387 Li+    0.000000    0.000000    0.773338    2.000000 Uiso  1.0000
 Li2_B3_n387 Li+    0.500000    0.500000    0.773338    2.000000 Uiso  0.3650
 Li1_B3_n388 Li+    0.000000    0.000000    0.775338    2.000000 Uiso  1.0000
 Li2_B3_n388 Li+    0.500000    0.500000    0.775338    2.000000 Uiso  0.3650
 Li1_B3_n389 Li+    0.000000    0.000000    0.777338    2.000000 Uiso  1.0000
 Li2_B3_n389 Li+    0.500000    0.500000    0.777338    2.000000 Uiso  0.3650
 Li1_B3_n390 Li+    0.000000    0.000000    0.779338    2.000000 Uiso  1.0000
 Li2_B3_n390 Li+    0.500000    0.500000    0.779338    2.000000 Uiso  0.3650
 Li1_B3_n391 Li+    0.000000    0.000000    0.781338    2.000000 Uiso  1.0000
 Li2_B3_n391 Li+    0.500000    0.500000    0.781338    2.000000 Uiso  0.3650
 Li1_B3_n392 Li+    0.000000    0.000000    0.783338    2.000000 Uiso  1.0000
 Li2_B3_n392 Li+    0.500000    0.500000    0.783338    2.000000 Uiso  0.3650
 Li1_B3_n393 Li+    0.000000    0.000000    0.785338    2.000000 Uiso  1.0000
 Li2_B3_n393 Li+    0.500000    0.500000    0.785338    2.000000 Uiso  0.3650
 Li1_B3_n394 Li+    0.000000    0.000000    0.787338    2.000000 Uiso  1.0000
 Li2_B3_n394 Li+    0.500000    0.500000    0.787338    2.000000 Uiso  0.3650
 Li1_B3_n395 Li+    0.000000    0.000000    0.789338    2.000000 Uiso  1.0000
 Li2_B3_n395 Li+    0.500000    0.500000    0.789338    2.000000 Uiso  0.3650
 Li1_B3_n396 Li+    0.000000    0.000000    0.791338    2.000000 Uiso  1.0000
 Li2_B3_n396 Li+    0.500000    0.500000    0.791338    2.000000 Uiso  0.3650
 Li1_B3_n397 Li+    0.000000    0.000000    0.793338    2.000000 Uiso  1.0000
 Li2_B3_n397 Li+    0.500000    0.500000    0.793338    2.000000 Uiso  0.3650
 Li1_B3_n398 Li+    0.000000    0.000000    0.795338    2.000000 Uiso  1.0000
 Li2_B3_n398 Li+    0.500000    0.500000    0.795338    2.000000 Uiso  0.3650
 Li1_B3_n399 Li+    0.000000    0.000000    0.797338    2.000000 Uiso  1.0000
 Li2_B3_n399 Li+    0.500000    0.500000    0.797338    2.000000 Uiso  0.3650
 Li1_B3_n400 Li+    0.000000    0.000000    0.799338    2.000000 Uiso  1.0000
 Li2_B3_n400 Li+    0.500000    0.500000    0.799338    2.000000 Uiso  0.3650
 Li1_B3_n401 Li+    0.000000    0.000000    0.801338    2.000000 Uiso  1.0000
 Li2_B3_n401 Li+    0.500000    0.500000    0.801338    2.000000 Uiso  0.3650
 Li1_B3_n402 Li+    0.000000    0.000000    0.803338    2.000000 Uiso  1.0000
 Li2_B3_n402 Li+    0.500000    0.500000    0.803338    2.000000 Uiso  0.3650
 Li1_B3_n403 Li+    0.000000    0.000000    0.805338    2.000000 Uiso  1.0000
 Li2_B3_n403 Li+    0.500000    0.500000    0.805338    2.000000 Uiso  0.3650
 Li1_B3_n404 Li+    0.000000    0.000000    0.807338    2.000000 Uiso  1.0000
 Li2_B3_n404 Li+    0.500000    0.500000    0.807338    2.000000 Uiso  0.3650
 Li1_B3_n405 Li+    0.000000    0.000000    0.809338    2.000000 Uiso  1.0000
 Li2_B3_n405 Li+    0.500000    0.500000    0.809338    2.000000 Uiso  0.3650
 Li1_B3_n406 Li+    0.000000    0.000000    0.811338    2.000000 Uiso  1.0000
 Li2_B3_n406 Li+    0.500000    0.500000    0.811338    2.000000 Uiso  0.3650
 Li1_B3_n407 Li+    0.000000    0.000000    0.813338    2.000000 Uiso  1.0000
 Li2_B3_n407 Li+    0.500000    0.500000    0.813338    2.000000 Uiso  0.3650
 Li1_B3_n408 Li+    0.000000    0.000000    0.815338    2.000000 Uiso  1.0000
 Li2_B3_n408 Li+    0.500000    0.500000    0.815338    2.000000 Uiso  0.3650
 Li1_B3_n409 Li+    0.000000    0.000000    0.817338    2.000000 Uiso  1.0000
 Li2_B3_n409 Li+    0.500000    0.500000    0.817338    2.000000 Uiso  0.3650
 Li1_B3_n410 Li+    0.000000    0.000000    0.819338    2.000000 Uiso  1.0000
 Li2_B3_n410 Li+    0.500000    0.500000    0.819338    2.000000 Uiso  0.3650
 Li1_B3_n411 Li+    0.000000    0.000000    0.821338    2.000000 Uiso  1.0000
 Li2_B3_n411 Li+    0.500000    0.500000    0.821338    2.000000 Uiso  0.3650
 Li1_B3_n412 Li+    0.000000    0.000000    0.823338    2.000000 Uiso  1.0000
 Li2_B3_n412 Li+    0.500000    0.500000    0.823338    2.000000 Uiso  0.3650
 Li1_B3_n413 Li+    0.000000    0.000000    0.825338    2.000000 Uiso  1.0000
 Li2_B3_n413 Li+    0.500000    0.500000    0.825338    2.000000 Uiso  0.3650
 Li1_B3_n414 Li+    0.000000    0.000000    0.827338    2.000000 Uiso  1.0000
 Li2_B3_n414 Li+    0.500000    0.500000    0.827338    2.000000 Uiso  0.3650
 Li1_B3_n415 Li+    0.000000    0.000000    0.829338    2.000000 Uiso  1.0000
 Li2_B3_n415 Li+    0.500000    0.500000    0.829338    2.000000 Uiso  0.3650
 Li1_B3_n416 Li+    0.000000    0.000000    0.831338    2.000000 Uiso  1.0000
 Li2_B3_n416 Li+    0.500000    0.500000    0.831338    2.000000 Uiso  0.3650
 Li1_B3_n417 Li+    0.000000    0.000000    0.833338    2.000000 Uiso  1.0000
 Li2_B3_n417 Li+    0.500000    0.500000    0.833338    2.000000 Uiso  0.3650
 Li1_B3_n418 Li+    0.000000    0.000000    0.835338    2.000000 Uiso  1.0000
 Li2_B3_n418 Li+    0.500000    0.500000    0.835338    2.000000 Uiso  0.3650
 Li1_B3_n419 Li+    0.000000    0.000000    0.837338    2.000000 Uiso  1.0000
 Li2_B3_n419 Li+    0.500000    0.500000    0.837338    2.000000 Uiso  0.3650
 Li1_B3_n420 Li+    0.000000    0.000000    0.839338    2.000000 Uiso  1.0000
 Li2_B3_n420 Li+    0.500000    0.500000    0.839338    2.000000 Uiso  0.3650
 Li1_B3_n421 Li+    0.000000    0.000000    0.841338    2.000000 Uiso  1.0000
 Li2_B3_n421 Li+    0.500000    0.500000    0.841338    2.000000 Uiso  0.3650
 Li1_B3_n422 Li+    0.000000    0.000000    0.843338    2.000000 Uiso  1.0000
 Li2_B3_n422 Li+    0.500000    0.500000    0.843338    2.000000 Uiso  0.3650
 Li1_B3_n423 Li+    0.000000    0.000000    0.845338    2.000000 Uiso  1.0000
 Li2_B3_n423 Li+    0.500000    0.500000    0.845338    2.000000 Uiso  0.3650
 Li1_B3_n424 Li+    0.000000    0.000000    0.847338    2.000000 Uiso  1.0000
 Li2_B3_n424 Li+    0.500000    0.500000    0.847338    2.000000 Uiso  0.3650
 Li1_B3_n425 Li+    0.000000    0.000000    0.849338    2.000000 Uiso  1.0000
 Li2_B3_n425 Li+    0.500000    0.500000    0.849338    2.000000 Uiso  0.3650
 Li1_B3_n426 Li+    0.000000    0.000000    0.851338    2.000000 Uiso  1.0000
 Li2_B3_n426 Li+    0.500000    0.500000    0.851338    2.000000 Uiso  0.3650
 Li1_B3_n427 Li+    0.000000    0.000000    0.853338    2.000000 Uiso  1.0000
 Li2_B3_n427 Li+    0.500000    0.500000    0.853338    2.000000 Uiso  0.3650
 Li1_B3_n428 Li+    0.000000    0.000000    0.855338    2.000000 Uiso  1.0000
 Li2_B3_n428 Li+    0.500000    0.500000    0.855338    2.000000 Uiso  0.3650
 Li1_B3_n429 Li+    0.000000    0.000000    0.857338    2.000000 Uiso  1.0000
 Li2_B3_n429 Li+    0.500000    0.500000    0.857338    2.000000 Uiso  0.3650
 Li1_B3_n430 Li+    0.000000    0.000000    0.859338    2.000000 Uiso  1.0000
 Li2_B3_n430 Li+    0.500000    0.500000    0.859338    2.000000 Uiso  0.3650
 Li1_B3_n431 Li+    0.000000    0.000000    0.861338    2.000000 Uiso  1.0000
 Li2_B3_n431 Li+    0.500000    0.500000    0.861338    2.000000 Uiso  0.3650
 Li1_B3_n432 Li+    0.000000    0.000000    0.863338    2.000000 Uiso  1.0000
 Li2_B3_n432 Li+    0.500000    0.500000    0.863338    2.000000 Uiso  0.3650
 Li1_B3_n433 Li+    0.000000    0.000000    0.865338    2.000000 Uiso  1.0000
 Li2_B3_n433 Li+    0.500000    0.500000    0.865338    2.000000 Uiso  0.3650
 Li1_B3_n434 Li+    0.000000    0.000000    0.867338    2.000000 Uiso  1.0000
 Li2_B3_n434 Li+    0.500000    0.500000    0.867338    2.000000 Uiso  0.3650
 Li1_B3_n435 Li+    0.000000    0.000000    0.869338    2.000000 Uiso  1.0000
 Li2_B3_n435 Li+    0.500000    0.500000    0.869338    2.000000 Uiso  0.3650
 Li1_B3_n436 Li+    0.000000    0.000000    0.871338    2.000000 Uiso  1.0000
 Li2_B3_n436 Li+    0.500000    0.500000    0.871338    2.000000 Uiso  0.3650
 Li1_B3_n437 Li+    0.000000    0.000000    0.873338    2.000000 Uiso  1.0000
 Li2_B3_n437 Li+    0.500000    0.500000    0.873338    2.000000 Uiso  0.3650
 Li1_B3_n438 Li+    0.000000    0.000000    0.875338    2.000000 Uiso  1.0000
 Li2_B3_n438 Li+    0.500000    0.500000    0.875338    2.000000 Uiso  0.3650
 Li1_B3_n439 Li+    0.000000    0.000000    0.877338    2.000000 Uiso  1.0000
 Li2_B3_n439 Li+    0.500000    0.500000    0.877338    2.000000 Uiso  0.3650
 Li1_B3_n440 Li+    0.000000    0.000000    0.879338    2.000000 Uiso  1.0000
 Li2_B3_n440 Li+    0.500000    0.500000    0.879338    2.000000 Uiso  0.3650
 Li1_B3_n441 Li+    0.000000    0.000000    0.881338    2.000000 Uiso  1.0000
 Li2_B3_n441 Li+    0.500000    0.500000    0.881338    2.000000 Uiso  0.3650
 Li1_B3_n442 Li+    0.000000    0.000000    0.883338    2.000000 Uiso  1.0000
 Li2_B3_n442 Li+    0.500000    0.500000    0.883338    2.000000 Uiso  0.3650
 Li1_B3_n443 Li+    0.000000    0.000000    0.885338    2.000000 Uiso  1.0000
 Li2_B3_n443 Li+    0.500000    0.500000    0.885338    2.000000 Uiso  0.3650
 Li1_B3_n444 Li+    0.000000    0.000000    0.887338    2.000000 Uiso  1.0000
 Li2_B3_n444 Li+    0.500000    0.500000    0.887338    2.000000 Uiso  0.3650
 Li1_B3_n445 Li+    0.000000    0.000000    0.889338    2.000000 Uiso  1.0000
 Li2_B3_n445 Li+    0.500000    0.500000    0.889338    2.000000 Uiso  0.3650
 Li1_B3_n446 Li+    0.000000    0.000000    0.891338    2.000000 Uiso  1.0000
 Li2_B3_n446 Li+    0.500000    0.500000    0.891338    2.000000 Uiso  0.3650
 Li1_B3_n447 Li+    0.000000    0.000000    0.893338    2.000000 Uiso  1.0000
 Li2_B3_n447 Li+    0.500000    0.500000    0.893338    2.000000 Uiso  0.3650
 Li1_B3_n448 Li+    0.000000    0.000000    0.895338    2.000000 Uiso  1.0000
 Li2_B3_n448 Li+    0.500000    0.500000    0.895338    2.000000 Uiso  0.3650
 Li1_B3_n449 Li+    0.000000    0.000000    0.897338    2.000000 Uiso  1.0000
 Li2_B3_n449 Li+    0.500000    0.500000    0.897338    2.000000 Uiso  0.3650
 Li1_B3_n450 Li+    0.000000    0.000000    0.899338    2.000000 Uiso  1.0000
 Li2_B3_n450 Li+    0.500000    0.500000    0.899338    2.000000 Uiso  0.3650
 Li1_B3_n451 Li+    0.000000    0.000000    0.901338    2.000000 Uiso  1.0000
 Li2_B3_n451 Li+    0.500000    0.500000    0.901338    2.000000 Uiso  0.3650
 Li1_B3_n452 Li+    0.000000    0.000000    0.903338    2.000000 Uiso  1.0000
 Li2_B3_n452 Li+    0.500000    0.500000    0.903338    2.000000 Uiso  0.3650
 Li1_B3_n453 Li+    0.000000    0.000000    0.905338    2.000000 Uiso  1.0000
 Li2_B3_n453 Li+    0.500000    0.500000    0.905338    2.000000 Uiso  0.3650
 Li1_B3_n454 Li+    0.000000    0.000000    0.907338    2.000000 Uiso  1.0000
 Li2_B3_n454 Li+    0.500000    0.500000    0.907338    2.000000 Uiso  0.3650
 Li1_B3_n455 Li+    0.000000    0.000000    0.909338    2.000000 Uiso  1.0000
 Li2_B3_n455 Li+    0.500000    0.500000    0.909338    2.000000 Uiso  0.3650
 Li1_B3_n456 Li+    0.000000    0.000000    0.911338    2.000000 Uiso  1.0000
 Li2_B3_n456 Li+    0.500000    0.500000    0.911338    2.000000 Uiso  0.3650
 Li1_B3_n457 Li+    0.000000    0.000000    0.913338    2.000000 Uiso  1.0000
 Li2_B3_n457 Li+    0.500000    0.500000    0.913338    2.000000 Uiso  0.3650
 Li1_B3_n458 Li+    0.000000    0.000000    0.915338    2.000000 Uiso  1.0000
 Li2_B3_n458 Li+    0.500000    0.500000    0.915338    2.000000 Uiso  0.3650
 Li1_B3_n459 Li+    0.000000    0.000000    0.917338    2.000000 Uiso  1.0000
 Li2_B3_n459 Li+    0.500000    0.500000    0.917338    2.000000 Uiso  0.3650
 Li1_B3_n460 Li+    0.000000    0.000000    0.919338    2.000000 Uiso  1.0000
 Li2_B3_n460 Li+    0.500000    0.500000    0.919338    2.000000 Uiso  0.3650
 Li1_B3_n461 Li+    0.000000    0.000000    0.921338    2.000000 Uiso  1.0000
 Li2_B3_n461 Li+    0.500000    0.500000    0.921338    2.000000 Uiso  0.3650
 Li1_B3_n462 Li+    0.000000    0.000000    0.923338    2.000000 Uiso  1.0000
 Li2_B3_n462 Li+    0.500000    0.500000    0.923338    2.000000 Uiso  0.3650
 Li1_B3_n463 Li+    0.000000    0.000000    0.925338    2.000000 Uiso  1.0000
 Li2_B3_n463 Li+    0.500000    0.500000    0.925338    2.000000 Uiso  0.3650
 Li1_B3_n464 Li+    0.000000    0.000000    0.927338    2.000000 Uiso  1.0000
 Li2_B3_n464 Li+    0.500000    0.500000    0.927338    2.000000 Uiso  0.3650
 Li1_B3_n465 Li+    0.000000    0.000000    0.929338    2.000000 Uiso  1.0000
 Li2_B3_n465 Li+    0.500000    0.500000    0.929338    2.000000 Uiso  0.3650
 Li1_B3_n466 Li+    0.000000    0.000000    0.931338    2.000000 Uiso  1.0000
 Li2_B3_n466 Li+    0.500000    0.500000    0.931338    2.000000 Uiso  0.3650
 Li1_B3_n467 Li+    0.000000    0.000000    0.933338    2.000000 Uiso  1.0000
 Li2_B3_n467 Li+    0.500000    0.500000    0.933338    2.000000 Uiso  0.3650
 Li1_B3_n468 Li+    0.000000    0.000000    0.935338    2.000000 Uiso  1.0000
 Li2_B3_n468 Li+    0.500000    0.500000    0.935338    2.000000 Uiso  0.3650
 Li1_B3_n469 Li+    0.000000    0.000000    0.937338    2.000000 Uiso  1.0000
 Li2_B3_n469 Li+    0.500000    0.500000    0.937338    2.000000 Uiso  0.3650
 Li1_B3_n470 Li+    0.000000    0.000000    0.939338    2.000000 Uiso  1.0000
 Li2_B3_n470 Li+    0.500000    0.500000    0.939338    2.000000 Uiso  0.3650
 Li1_B3_n471 Li+    0.000000    0.000000    0.941338    2.000000 Uiso  1.0000
 Li2_B3_n471 Li+    0.500000    0.500000    0.941338    2.000000 Uiso  0.3650
 Li1_B3_n472 Li+    0.000000    0.000000    0.943338    2.000000 Uiso  1.0000
 Li2_B3_n472 Li+    0.500000    0.500000    0.943338    2.000000 Uiso  0.3650
 Li1_B3_n473 Li+    0.000000    0.000000    0.945338    2.000000 Uiso  1.0000
 Li2_B3_n473 Li+    0.500000    0.500000    0.945338    2.000000 Uiso  0.3650
 Li1_B3_n474 Li+    0.000000    0.000000    0.947338    2.000000 Uiso  1.0000
 Li2_B3_n474 Li+    0.500000    0.500000    0.947338    2.000000 Uiso  0.3650
 Li1_B3_n475 Li+    0.000000    0.000000    0.949338    2.000000 Uiso  1.0000
 Li2_B3_n475 Li+    0.500000    0.500000    0.949338    2.000000 Uiso  0.3650
 Li1_B3_n476 Li+    0.000000    0.000000    0.951338    2.000000 Uiso  1.0000
 Li2_B3_n476 Li+    0.500000    0.500000    0.951338    2.000000 Uiso  0.3650
 Li1_B3_n477 Li+    0.000000    0.000000    0.953338    2.000000 Uiso  1.0000
 Li2_B3_n477 Li+    0.500000    0.500000    0.953338    2.000000 Uiso  0.3650
 Li1_B3_n478 Li+    0.000000    0.000000    0.955338    2.000000 Uiso  1.0000
 Li2_B3_n478 Li+    0.500000    0.500000    0.955338    2.000000 Uiso  0.3650
 Li1_B3_n479 Li+    0.000000    0.000000    0.957338    2.000000 Uiso  1.0000
 Li2_B3_n479 Li+    0.500000    0.500000    0.957338    2.000000 Uiso  0.3650
 Li1_B3_n480 Li+    0.000000    0.000000    0.959338    2.000000 Uiso  1.0000
 Li2_B3_n480 Li+    0.500000    0.500000    0.959338    2.000000 Uiso  0.3650
 Li1_B3_n481 Li+    0.000000    0.000000    0.961338    2.000000 Uiso  1.0000
 Li2_B3_n481 Li+    0.500000    0.500000    0.961338    2.000000 Uiso  0.3650
 Li1_B3_n482 Li+    0.000000    0.000000    0.963338    2.000000 Uiso  1.0000
 Li2_B3_n482 Li+    0.500000    0.500000    0.963338    2.000000 Uiso  0.3650
 Li1_B3_n483 Li+    0.000000    0.000000    0.965338    2.000000 Uiso  1.0000
 Li2_B3_n483 Li+    0.500000    0.500000    0.965338    2.000000 Uiso  0.3650
 Li1_B3_n484 Li+    0.000000    0.000000    0.967338    2.000000 Uiso  1.0000
 Li2_B3_n484 Li+    0.500000    0.500000    0.967338    2.000000 Uiso  0.3650
 Li1_B3_n485 Li+    0.000000    0.000000    0.969338    2.000000 Uiso  1.0000
 Li2_B3_n485 Li+    0.500000    0.500000    0.969338    2.000000 Uiso  0.3650
 Li1_B3_n486 Li+    0.000000    0.000000    0.971338    2.000000 Uiso  1.0000
 Li2_B3_n486 Li+    0.500000    0.500000    0.971338    2.000000 Uiso  0.3650
 Li1_B3_n487 Li+    0.000000    0.000000    0.973338    2.000000 Uiso  1.0000
 Li2_B3_n487 Li+    0.500000    0.500000    0.973338    2.000000 Uiso  0.3650
 Li1_B3_n488 Li+    0.000000    0.000000    0.975338    2.000000 Uiso  1.0000
 Li2_B3_n488 Li+    0.500000    0.500000    0.975338    2.000000 Uiso  0.3650
 Li1_B3_n489 Li+    0.000000    0.000000    0.977338    2.000000 Uiso  1.0000
 Li2_B3_n489 Li+    0.500000    0.500000    0.977338    2.000000 Uiso  0.3650
 Li1_B3_n490 Li+    0.000000    0.000000    0.979338    2.000000 Uiso  1.0000
 Li2_B3_n490 Li+    0.500000    0.500000    0.979338    2.000000 Uiso  0.3650
 Li1_B3_n491 Li+    0.000000    0.000000    0.981338    2.000000 Uiso  1.0000
 Li2_B3_n491 Li+    0.500000    0.500000    0.981338    2.000000 Uiso  0.3650
 Li1_B3_n492 Li+    0.000000    0.000000    0.983338    2.000000 Uiso  1.0000
 Li2_B3_n492 Li+    0.500000    0.500000    0.983338    2.000000 Uiso  0.3650
 Li1_B3_n493 Li+    0.000000    0.000000    0.985338    2.000000 Uiso  1.0000
 Li2_B3_n493 Li+    0.500000    0.500000    0.985338    2.000000 Uiso  0.3650
 Li1_B3_n494 Li+    0.000000    0.000000    0.987338    2.000000 Uiso  1.0000
 Li2_B3_n494 Li+    0.500000    0.500000    0.987338    2.000000 Uiso  0.3650
 Li1_B3_n495 Li+    0.000000    0.000000    0.989338    2.000000 Uiso  1.0000
 Li2_B3_n495 Li+    0.500000    0.500000    0.989338    2.000000 Uiso  0.3650
 Li1_B3_n496 Li+    0.000000    0.000000    0.991338    2.000000 Uiso  1.0000
 Li2_B3_n496 Li+    0.500000    0.500000    0.991338    2.000000 Uiso  0.3650
 Li1_B3_n497 Li+    0.000000    0.000000    0.993338    2.000000 Uiso  1.0000
 Li2_B3_n497 Li+    0.500000    0.500000    0.993338    2.000000 Uiso  0.3650
 Li1_B3_n498 Li+    0.000000    0.000000    0.995338    2.000000 Uiso  1.0000
 Li2_B3_n498 Li+    0.500000    0.500000    0.995338    2.000000 Uiso  0.3650
 Li1_B3_n499 Li+    0.000000    0.000000    0.997338    2.000000 Uiso  1.0000
 Li2_B3_n499 Li+    0.500000    0.500000    0.997338    2.000000 Uiso  0.3650
 Li1_B3_n500 Li+    0.000000    0.000000    0.999338    2.000000 Uiso  1.0000
 Li2_B3_n500 Li+    0.500000    0.500000    0.999338    2.000000 Uiso  0.3650
 Li1_B4_n1 Li+    0.500000    0.000000    0.001662    2.000000 Uiso  1.0000
 Li2_B4_n1 Li+    0.000000    0.500000    0.001662    2.000000 Uiso  0.3650
 Li1_B4_n2 Li+    0.500000    0.000000    0.003662    2.000000 Uiso  1.0000
 Li2_B4_n2 Li+    0.000000    0.500000    0.003662    2.000000 Uiso  0.3650
 Li1_B4_n3 Li+    0.500000    0.000000    0.005662    2.000000 Uiso  1.0000
 Li2_B4_n3 Li+    0.000000    0.500000    0.005662    2.000000 Uiso  0.3650
 Li1_B4_n4 Li+    0.500000    0.000000    0.007662    2.000000 Uiso  1.0000
 Li2_B4_n4 Li+    0.000000    0.500000    0.007662    2.000000 Uiso  0.3650
 Li1_B4_n5 Li+    0.500000    0.000000    0.009662    2.000000 Uiso  1.0000
 Li2_B4_n5 Li+    0.000000    0.500000    0.009662    2.000000 Uiso  0.3650
 Li1_B4_n6 Li+    0.500000    0.000000    0.011662    2.000000 Uiso  1.0000
 Li2_B4_n6 Li+    0.000000    0.500000    0.011662    2.000000 Uiso  0.3650
 Li1_B4_n7 Li+    0.500000    0.000000    0.013662    2.000000 Uiso  1.0000
 Li2_B4_n7 Li+    0.000000    0.500000    0.013662    2.000000 Uiso  0.3650
 Li1_B4_n8 Li+    0.500000    0.000000    0.015662    2.000000 Uiso  1.0000
 Li2_B4_n8 Li+    0.000000    0.500000    0.015662    2.000000 Uiso  0.3650
 Li1_B4_n9 Li+    0.500000    0.000000    0.017662    2.000000 Uiso  1.0000
 Li2_B4_n9 Li+    0.000000    0.500000    0.017662    2.000000 Uiso  0.3650
 Li1_B4_n10 Li+    0.500000    0.000000    0.019662    2.000000 Uiso  1.0000
 Li2_B4_n10 Li+    0.000000    0.500000    0.019662    2.000000 Uiso  0.3650
 Li1_B4_n11 Li+    0.500000    0.000000    0.021662    2.000000 Uiso  1.0000
 Li2_B4_n11 Li+    0.000000    0.500000    0.021662    2.000000 Uiso  0.3650
 Li1_B4_n12 Li+    0.500000    0.000000    0.023662    2.000000 Uiso  1.0000
 Li2_B4_n12 Li+    0.000000    0.500000    0.023662    2.000000 Uiso  0.3650
 Li1_B4_n13 Li+    0.500000    0.000000    0.025662    2.000000 Uiso  1.0000
 Li2_B4_n13 Li+    0.000000    0.500000    0.025662    2.000000 Uiso  0.3650
 Li1_B4_n14 Li+    0.500000    0.000000    0.027662    2.000000 Uiso  1.0000
 Li2_B4_n14 Li+    0.000000    0.500000    0.027662    2.000000 Uiso  0.3650
 Li1_B4_n15 Li+    0.500000    0.000000    0.029662    2.000000 Uiso  1.0000
 Li2_B4_n15 Li+    0.000000    0.500000    0.029662    2.000000 Uiso  0.3650
 Li1_B4_n16 Li+    0.500000    0.000000    0.031662    2.000000 Uiso  1.0000
 Li2_B4_n16 Li+    0.000000    0.500000    0.031662    2.000000 Uiso  0.3650
 Li1_B4_n17 Li+    0.500000    0.000000    0.033662    2.000000 Uiso  1.0000
 Li2_B4_n17 Li+    0.000000    0.500000    0.033662    2.000000 Uiso  0.3650
 Li1_B4_n18 Li+    0.500000    0.000000    0.035662    2.000000 Uiso  1.0000
 Li2_B4_n18 Li+    0.000000    0.500000    0.035662    2.000000 Uiso  0.3650
 Li1_B4_n19 Li+    0.500000    0.000000    0.037662    2.000000 Uiso  1.0000
 Li2_B4_n19 Li+    0.000000    0.500000    0.037662    2.000000 Uiso  0.3650
 Li1_B4_n20 Li+    0.500000    0.000000    0.039662    2.000000 Uiso  1.0000
 Li2_B4_n20 Li+    0.000000    0.500000    0.039662    2.000000 Uiso  0.3650
 Li1_B4_n21 Li+    0.500000    0.000000    0.041662    2.000000 Uiso  1.0000
 Li2_B4_n21 Li+    0.000000    0.500000    0.041662    2.000000 Uiso  0.3650
 Li1_B4_n22 Li+    0.500000    0.000000    0.043662    2.000000 Uiso  1.0000
 Li2_B4_n22 Li+    0.000000    0.500000    0.043662    2.000000 Uiso  0.3650
 Li1_B4_n23 Li+    0.500000    0.000000    0.045662    2.000000 Uiso  1.0000
 Li2_B4_n23 Li+    0.000000    0.500000    0.045662    2.000000 Uiso  0.3650
 Li1_B4_n24 Li+    0.500000    0.000000    0.047662    2.000000 Uiso  1.0000
 Li2_B4_n24 Li+    0.000000    0.500000    0.047662    2.000000 Uiso  0.3650
 Li1_B4_n25 Li+    0.500000    0.000000    0.049662    2.000000 Uiso  1.0000
 Li2_B4_n25 Li+    0.000000    0.500000    0.049662    2.000000 Uiso  0.3650
 Li1_B4_n26 Li+    0.500000    0.000000    0.051662    2.000000 Uiso  1.0000
 Li2_B4_n26 Li+    0.000000    0.500000    0.051662    2.000000 Uiso  0.3650
 Li1_B4_n27 Li+    0.500000    0.000000    0.053662    2.000000 Uiso  1.0000
 Li2_B4_n27 Li+    0.000000    0.500000    0.053662    2.000000 Uiso  0.3650
 Li1_B4_n28 Li+    0.500000    0.000000    0.055662    2.000000 Uiso  1.0000
 Li2_B4_n28 Li+    0.000000    0.500000    0.055662    2.000000 Uiso  0.3650
 Li1_B4_n29 Li+    0.500000    0.000000    0.057662    2.000000 Uiso  1.0000
 Li2_B4_n29 Li+    0.000000    0.500000    0.057662    2.000000 Uiso  0.3650
 Li1_B4_n30 Li+    0.500000    0.000000    0.059662    2.000000 Uiso  1.0000
 Li2_B4_n30 Li+    0.000000    0.500000    0.059662    2.000000 Uiso  0.3650
 Li1_B4_n31 Li+    0.500000    0.000000    0.061662    2.000000 Uiso  1.0000
 Li2_B4_n31 Li+    0.000000    0.500000    0.061662    2.000000 Uiso  0.3650
 Li1_B4_n32 Li+    0.500000    0.000000    0.063662    2.000000 Uiso  1.0000
 Li2_B4_n32 Li+    0.000000    0.500000    0.063662    2.000000 Uiso  0.3650
 Li1_B4_n33 Li+    0.500000    0.000000    0.065662    2.000000 Uiso  1.0000
 Li2_B4_n33 Li+    0.000000    0.500000    0.065662    2.000000 Uiso  0.3650
 Li1_B4_n34 Li+    0.500000    0.000000    0.067662    2.000000 Uiso  1.0000
 Li2_B4_n34 Li+    0.000000    0.500000    0.067662    2.000000 Uiso  0.3650
 Li1_B4_n35 Li+    0.500000    0.000000    0.069662    2.000000 Uiso  1.0000
 Li2_B4_n35 Li+    0.000000    0.500000    0.069662    2.000000 Uiso  0.3650
 Li1_B4_n36 Li+    0.500000    0.000000    0.071662    2.000000 Uiso  1.0000
 Li2_B4_n36 Li+    0.000000    0.500000    0.071662    2.000000 Uiso  0.3650
 Li1_B4_n37 Li+    0.500000    0.000000    0.073662    2.000000 Uiso  1.0000
 Li2_B4_n37 Li+    0.000000    0.500000    0.073662    2.000000 Uiso  0.3650
 Li1_B4_n38 Li+    0.500000    0.000000    0.075662    2.000000 Uiso  1.0000
 Li2_B4_n38 Li+    0.000000    0.500000    0.075662    2.000000 Uiso  0.3650
 Li1_B4_n39 Li+    0.500000    0.000000    0.077662    2.000000 Uiso  1.0000
 Li2_B4_n39 Li+    0.000000    0.500000    0.077662    2.000000 Uiso  0.3650
 Li1_B4_n40 Li+    0.500000    0.000000    0.079662    2.000000 Uiso  1.0000
 Li2_B4_n40 Li+    0.000000    0.500000    0.079662    2.000000 Uiso  0.3650
 Li1_B4_n41 Li+    0.500000    0.000000    0.081662    2.000000 Uiso  1.0000
 Li2_B4_n41 Li+    0.000000    0.500000    0.081662    2.000000 Uiso  0.3650
 Li1_B4_n42 Li+    0.500000    0.000000    0.083662    2.000000 Uiso  1.0000
 Li2_B4_n42 Li+    0.000000    0.500000    0.083662    2.000000 Uiso  0.3650
 Li1_B4_n43 Li+    0.500000    0.000000    0.085662    2.000000 Uiso  1.0000
 Li2_B4_n43 Li+    0.000000    0.500000    0.085662    2.000000 Uiso  0.3650
 Li1_B4_n44 Li+    0.500000    0.000000    0.087662    2.000000 Uiso  1.0000
 Li2_B4_n44 Li+    0.000000    0.500000    0.087662    2.000000 Uiso  0.3650
 Li1_B4_n45 Li+    0.500000    0.000000    0.089662    2.000000 Uiso  1.0000
 Li2_B4_n45 Li+    0.000000    0.500000    0.089662    2.000000 Uiso  0.3650
 Li1_B4_n46 Li+    0.500000    0.000000    0.091662    2.000000 Uiso  1.0000
 Li2_B4_n46 Li+    0.000000    0.500000    0.091662    2.000000 Uiso  0.3650
 Li1_B4_n47 Li+    0.500000    0.000000    0.093662    2.000000 Uiso  1.0000
 Li2_B4_n47 Li+    0.000000    0.500000    0.093662    2.000000 Uiso  0.3650
 Li1_B4_n48 Li+    0.500000    0.000000    0.095662    2.000000 Uiso  1.0000
 Li2_B4_n48 Li+    0.000000    0.500000    0.095662    2.000000 Uiso  0.3650
 Li1_B4_n49 Li+    0.500000    0.000000    0.097662    2.000000 Uiso  1.0000
 Li2_B4_n49 Li+    0.000000    0.500000    0.097662    2.000000 Uiso  0.3650
 Li1_B4_n50 Li+    0.500000    0.000000    0.099662    2.000000 Uiso  1.0000
 Li2_B4_n50 Li+    0.000000    0.500000    0.099662    2.000000 Uiso  0.3650
 Li1_B4_n51 Li+    0.500000    0.000000    0.101662    2.000000 Uiso  1.0000
 Li2_B4_n51 Li+    0.000000    0.500000    0.101662    2.000000 Uiso  0.3650
 Li1_B4_n52 Li+    0.500000    0.000000    0.103662    2.000000 Uiso  1.0000
 Li2_B4_n52 Li+    0.000000    0.500000    0.103662    2.000000 Uiso  0.3650
 Li1_B4_n53 Li+    0.500000    0.000000    0.105662    2.000000 Uiso  1.0000
 Li2_B4_n53 Li+    0.000000    0.500000    0.105662    2.000000 Uiso  0.3650
 Li1_B4_n54 Li+    0.500000    0.000000    0.107662    2.000000 Uiso  1.0000
 Li2_B4_n54 Li+    0.000000    0.500000    0.107662    2.000000 Uiso  0.3650
 Li1_B4_n55 Li+    0.500000    0.000000    0.109662    2.000000 Uiso  1.0000
 Li2_B4_n55 Li+    0.000000    0.500000    0.109662    2.000000 Uiso  0.3650
 Li1_B4_n56 Li+    0.500000    0.000000    0.111662    2.000000 Uiso  1.0000
 Li2_B4_n56 Li+    0.000000    0.500000    0.111662    2.000000 Uiso  0.3650
 Li1_B4_n57 Li+    0.500000    0.000000    0.113662    2.000000 Uiso  1.0000
 Li2_B4_n57 Li+    0.000000    0.500000    0.113662    2.000000 Uiso  0.3650
 Li1_B4_n58 Li+    0.500000    0.000000    0.115662    2.000000 Uiso  1.0000
 Li2_B4_n58 Li+    0.000000    0.500000    0.115662    2.000000 Uiso  0.3650
 Li1_B4_n59 Li+    0.500000    0.000000    0.117662    2.000000 Uiso  1.0000
 Li2_B4_n59 Li+    0.000000    0.500000    0.117662    2.000000 Uiso  0.3650
 Li1_B4_n60 Li+    0.500000    0.000000    0.119662    2.000000 Uiso  1.0000
 Li2_B4_n60 Li+    0.000000    0.500000    0.119662    2.000000 Uiso  0.3650
 Li1_B4_n61 Li+    0.500000    0.000000    0.121662    2.000000 Uiso  1.0000
 Li2_B4_n61 Li+    0.000000    0.500000    0.121662    2.000000 Uiso  0.3650
 Li1_B4_n62 Li+    0.500000    0.000000    0.123662    2.000000 Uiso  1.0000
 Li2_B4_n62 Li+    0.000000    0.500000    0.123662    2.000000 Uiso  0.3650
 Li1_B4_n63 Li+    0.500000    0.000000    0.125662    2.000000 Uiso  1.0000
 Li2_B4_n63 Li+    0.000000    0.500000    0.125662    2.000000 Uiso  0.3650
 Li1_B4_n64 Li+    0.500000    0.000000    0.127662    2.000000 Uiso  1.0000
 Li2_B4_n64 Li+    0.000000    0.500000    0.127662    2.000000 Uiso  0.3650
 Li1_B4_n65 Li+    0.500000    0.000000    0.129662    2.000000 Uiso  1.0000
 Li2_B4_n65 Li+    0.000000    0.500000    0.129662    2.000000 Uiso  0.3650
 Li1_B4_n66 Li+    0.500000    0.000000    0.131662    2.000000 Uiso  1.0000
 Li2_B4_n66 Li+    0.000000    0.500000    0.131662    2.000000 Uiso  0.3650
 Li1_B4_n67 Li+    0.500000    0.000000    0.133662    2.000000 Uiso  1.0000
 Li2_B4_n67 Li+    0.000000    0.500000    0.133662    2.000000 Uiso  0.3650
 Li1_B4_n68 Li+    0.500000    0.000000    0.135662    2.000000 Uiso  1.0000
 Li2_B4_n68 Li+    0.000000    0.500000    0.135662    2.000000 Uiso  0.3650
 Li1_B4_n69 Li+    0.500000    0.000000    0.137662    2.000000 Uiso  1.0000
 Li2_B4_n69 Li+    0.000000    0.500000    0.137662    2.000000 Uiso  0.3650
 Li1_B4_n70 Li+    0.500000    0.000000    0.139662    2.000000 Uiso  1.0000
 Li2_B4_n70 Li+    0.000000    0.500000    0.139662    2.000000 Uiso  0.3650
 Li1_B4_n71 Li+    0.500000    0.000000    0.141662    2.000000 Uiso  1.0000
 Li2_B4_n71 Li+    0.000000    0.500000    0.141662    2.000000 Uiso  0.3650
 Li1_B4_n72 Li+    0.500000    0.000000    0.143662    2.000000 Uiso  1.0000
 Li2_B4_n72 Li+    0.000000    0.500000    0.143662    2.000000 Uiso  0.3650
 Li1_B4_n73 Li+    0.500000    0.000000    0.145662    2.000000 Uiso  1.0000
 Li2_B4_n73 Li+    0.000000    0.500000    0.145662    2.000000 Uiso  0.3650
 Li1_B4_n74 Li+    0.500000    0.000000    0.147662    2.000000 Uiso  1.0000
 Li2_B4_n74 Li+    0.000000    0.500000    0.147662    2.000000 Uiso  0.3650
 Li1_B4_n75 Li+    0.500000    0.000000    0.149662    2.000000 Uiso  1.0000
 Li2_B4_n75 Li+    0.000000    0.500000    0.149662    2.000000 Uiso  0.3650
 Li1_B4_n76 Li+    0.500000    0.000000    0.151662    2.000000 Uiso  1.0000
 Li2_B4_n76 Li+    0.000000    0.500000    0.151662    2.000000 Uiso  0.3650
 Li1_B4_n77 Li+    0.500000    0.000000    0.153662    2.000000 Uiso  1.0000
 Li2_B4_n77 Li+    0.000000    0.500000    0.153662    2.000000 Uiso  0.3650
 Li1_B4_n78 Li+    0.500000    0.000000    0.155662    2.000000 Uiso  1.0000
 Li2_B4_n78 Li+    0.000000    0.500000    0.155662    2.000000 Uiso  0.3650
 Li1_B4_n79 Li+    0.500000    0.000000    0.157662    2.000000 Uiso  1.0000
 Li2_B4_n79 Li+    0.000000    0.500000    0.157662    2.000000 Uiso  0.3650
 Li1_B4_n80 Li+    0.500000    0.000000    0.159662    2.000000 Uiso  1.0000
 Li2_B4_n80 Li+    0.000000    0.500000    0.159662    2.000000 Uiso  0.3650
 Li1_B4_n81 Li+    0.500000    0.000000    0.161662    2.000000 Uiso  1.0000
 Li2_B4_n81 Li+    0.000000    0.500000    0.161662    2.000000 Uiso  0.3650
 Li1_B4_n82 Li+    0.500000    0.000000    0.163662    2.000000 Uiso  1.0000
 Li2_B4_n82 Li+    0.000000    0.500000    0.163662    2.000000 Uiso  0.3650
 Li1_B4_n83 Li+    0.500000    0.000000    0.165662    2.000000 Uiso  1.0000
 Li2_B4_n83 Li+    0.000000    0.500000    0.165662    2.000000 Uiso  0.3650
 Li1_B4_n84 Li+    0.500000    0.000000    0.167662    2.000000 Uiso  1.0000
 Li2_B4_n84 Li+    0.000000    0.500000    0.167662    2.000000 Uiso  0.3650
 Li1_B4_n85 Li+    0.500000    0.000000    0.169662    2.000000 Uiso  1.0000
 Li2_B4_n85 Li+    0.000000    0.500000    0.169662    2.000000 Uiso  0.3650
 Li1_B4_n86 Li+    0.500000    0.000000    0.171662    2.000000 Uiso  1.0000
 Li2_B4_n86 Li+    0.000000    0.500000    0.171662    2.000000 Uiso  0.3650
 Li1_B4_n87 Li+    0.500000    0.000000    0.173662    2.000000 Uiso  1.0000
 Li2_B4_n87 Li+    0.000000    0.500000    0.173662    2.000000 Uiso  0.3650
 Li1_B4_n88 Li+    0.500000    0.000000    0.175662    2.000000 Uiso  1.0000
 Li2_B4_n88 Li+    0.000000    0.500000    0.175662    2.000000 Uiso  0.3650
 Li1_B4_n89 Li+    0.500000    0.000000    0.177662    2.000000 Uiso  1.0000
 Li2_B4_n89 Li+    0.000000    0.500000    0.177662    2.000000 Uiso  0.3650
 Li1_B4_n90 Li+    0.500000    0.000000    0.179662    2.000000 Uiso  1.0000
 Li2_B4_n90 Li+    0.000000    0.500000    0.179662    2.000000 Uiso  0.3650
 Li1_B4_n91 Li+    0.500000    0.000000    0.181662    2.000000 Uiso  1.0000
 Li2_B4_n91 Li+    0.000000    0.500000    0.181662    2.000000 Uiso  0.3650
 Li1_B4_n92 Li+    0.500000    0.000000    0.183662    2.000000 Uiso  1.0000
 Li2_B4_n92 Li+    0.000000    0.500000    0.183662    2.000000 Uiso  0.3650
 Li1_B4_n93 Li+    0.500000    0.000000    0.185662    2.000000 Uiso  1.0000
 Li2_B4_n93 Li+    0.000000    0.500000    0.185662    2.000000 Uiso  0.3650
 Li1_B4_n94 Li+    0.500000    0.000000    0.187662    2.000000 Uiso  1.0000
 Li2_B4_n94 Li+    0.000000    0.500000    0.187662    2.000000 Uiso  0.3650
 Li1_B4_n95 Li+    0.500000    0.000000    0.189662    2.000000 Uiso  1.0000
 Li2_B4_n95 Li+    0.000000    0.500000    0.189662    2.000000 Uiso  0.3650
 Li1_B4_n96 Li+    0.500000    0.000000    0.191662    2.000000 Uiso  1.0000
 Li2_B4_n96 Li+    0.000000    0.500000    0.191662    2.000000 Uiso  0.3650
 Li1_B4_n97 Li+    0.500000    0.000000    0.193662    2.000000 Uiso  1.0000
 Li2_B4_n97 Li+    0.000000    0.500000    0.193662    2.000000 Uiso  0.3650
 Li1_B4_n98 Li+    0.500000    0.000000    0.195662    2.000000 Uiso  1.0000
 Li2_B4_n98 Li+    0.000000    0.500000    0.195662    2.000000 Uiso  0.3650
 Li1_B4_n99 Li+    0.500000    0.000000    0.197662    2.000000 Uiso  1.0000
 Li2_B4_n99 Li+    0.000000    0.500000    0.197662    2.000000 Uiso  0.3650
 Li1_B4_n100 Li+    0.500000    0.000000    0.199662    2.000000 Uiso  1.0000
 Li2_B4_n100 Li+    0.000000    0.500000    0.199662    2.000000 Uiso  0.3650
 Li1_B4_n101 Li+    0.500000    0.000000    0.201662    2.000000 Uiso  1.0000
 Li2_B4_n101 Li+    0.000000    0.500000    0.201662    2.000000 Uiso  0.3650
 Li1_B4_n102 Li+    0.500000    0.000000    0.203662    2.000000 Uiso  1.0000
 Li2_B4_n102 Li+    0.000000    0.500000    0.203662    2.000000 Uiso  0.3650
 Li1_B4_n103 Li+    0.500000    0.000000    0.205662    2.000000 Uiso  1.0000
 Li2_B4_n103 Li+    0.000000    0.500000    0.205662    2.000000 Uiso  0.3650
 Li1_B4_n104 Li+    0.500000    0.000000    0.207662    2.000000 Uiso  1.0000
 Li2_B4_n104 Li+    0.000000    0.500000    0.207662    2.000000 Uiso  0.3650
 Li1_B4_n105 Li+    0.500000    0.000000    0.209662    2.000000 Uiso  1.0000
 Li2_B4_n105 Li+    0.000000    0.500000    0.209662    2.000000 Uiso  0.3650
 Li1_B4_n106 Li+    0.500000    0.000000    0.211662    2.000000 Uiso  1.0000
 Li2_B4_n106 Li+    0.000000    0.500000    0.211662    2.000000 Uiso  0.3650
 Li1_B4_n107 Li+    0.500000    0.000000    0.213662    2.000000 Uiso  1.0000
 Li2_B4_n107 Li+    0.000000    0.500000    0.213662    2.000000 Uiso  0.3650
 Li1_B4_n108 Li+    0.500000    0.000000    0.215662    2.000000 Uiso  1.0000
 Li2_B4_n108 Li+    0.000000    0.500000    0.215662    2.000000 Uiso  0.3650
 Li1_B4_n109 Li+    0.500000    0.000000    0.217662    2.000000 Uiso  1.0000
 Li2_B4_n109 Li+    0.000000    0.500000    0.217662    2.000000 Uiso  0.3650
 Li1_B4_n110 Li+    0.500000    0.000000    0.219662    2.000000 Uiso  1.0000
 Li2_B4_n110 Li+    0.000000    0.500000    0.219662    2.000000 Uiso  0.3650
 Li1_B4_n111 Li+    0.500000    0.000000    0.221662    2.000000 Uiso  1.0000
 Li2_B4_n111 Li+    0.000000    0.500000    0.221662    2.000000 Uiso  0.3650
 Li1_B4_n112 Li+    0.500000    0.000000    0.223662    2.000000 Uiso  1.0000
 Li2_B4_n112 Li+    0.000000    0.500000    0.223662    2.000000 Uiso  0.3650
 Li1_B4_n113 Li+    0.500000    0.000000    0.225662    2.000000 Uiso  1.0000
 Li2_B4_n113 Li+    0.000000    0.500000    0.225662    2.000000 Uiso  0.3650
 Li1_B4_n114 Li+    0.500000    0.000000    0.227662    2.000000 Uiso  1.0000
 Li2_B4_n114 Li+    0.000000    0.500000    0.227662    2.000000 Uiso  0.3650
 Li1_B4_n115 Li+    0.500000    0.000000    0.229662    2.000000 Uiso  1.0000
 Li2_B4_n115 Li+    0.000000    0.500000    0.229662    2.000000 Uiso  0.3650
 Li1_B4_n116 Li+    0.500000    0.000000    0.231662    2.000000 Uiso  1.0000
 Li2_B4_n116 Li+    0.000000    0.500000    0.231662    2.000000 Uiso  0.3650
 Li1_B4_n117 Li+    0.500000    0.000000    0.233662    2.000000 Uiso  1.0000
 Li2_B4_n117 Li+    0.000000    0.500000    0.233662    2.000000 Uiso  0.3650
 Li1_B4_n118 Li+    0.500000    0.000000    0.235662    2.000000 Uiso  1.0000
 Li2_B4_n118 Li+    0.000000    0.500000    0.235662    2.000000 Uiso  0.3650
 Li1_B4_n119 Li+    0.500000    0.000000    0.237662    2.000000 Uiso  1.0000
 Li2_B4_n119 Li+    0.000000    0.500000    0.237662    2.000000 Uiso  0.3650
 Li1_B4_n120 Li+    0.500000    0.000000    0.239662    2.000000 Uiso  1.0000
 Li2_B4_n120 Li+    0.000000    0.500000    0.239662    2.000000 Uiso  0.3650
 Li1_B4_n121 Li+    0.500000    0.000000    0.241662    2.000000 Uiso  1.0000
 Li2_B4_n121 Li+    0.000000    0.500000    0.241662    2.000000 Uiso  0.3650
 Li1_B4_n122 Li+    0.500000    0.000000    0.243662    2.000000 Uiso  1.0000
 Li2_B4_n122 Li+    0.000000    0.500000    0.243662    2.000000 Uiso  0.3650
 Li1_B4_n123 Li+    0.500000    0.000000    0.245662    2.000000 Uiso  1.0000
 Li2_B4_n123 Li+    0.000000    0.500000    0.245662    2.000000 Uiso  0.3650
 Li1_B4_n124 Li+    0.500000    0.000000    0.247662    2.000000 Uiso  1.0000
 Li2_B4_n124 Li+    0.000000    0.500000    0.247662    2.000000 Uiso  0.3650
 Li1_B4_n125 Li+    0.500000    0.000000    0.249662    2.000000 Uiso  1.0000
 Li2_B4_n125 Li+    0.000000    0.500000    0.249662    2.000000 Uiso  0.3650
 Li1_B4_n126 Li+    0.500000    0.000000    0.251662    2.000000 Uiso  1.0000
 Li2_B4_n126 Li+    0.000000    0.500000    0.251662    2.000000 Uiso  0.3650
 Li1_B4_n127 Li+    0.500000    0.000000    0.253662    2.000000 Uiso  1.0000
 Li2_B4_n127 Li+    0.000000    0.500000    0.253662    2.000000 Uiso  0.3650
 Li1_B4_n128 Li+    0.500000    0.000000    0.255662    2.000000 Uiso  1.0000
 Li2_B4_n128 Li+    0.000000    0.500000    0.255662    2.000000 Uiso  0.3650
 Li1_B4_n129 Li+    0.500000    0.000000    0.257662    2.000000 Uiso  1.0000
 Li2_B4_n129 Li+    0.000000    0.500000    0.257662    2.000000 Uiso  0.3650
 Li1_B4_n130 Li+    0.500000    0.000000    0.259662    2.000000 Uiso  1.0000
 Li2_B4_n130 Li+    0.000000    0.500000    0.259662    2.000000 Uiso  0.3650
 Li1_B4_n131 Li+    0.500000    0.000000    0.261662    2.000000 Uiso  1.0000
 Li2_B4_n131 Li+    0.000000    0.500000    0.261662    2.000000 Uiso  0.3650
 Li1_B4_n132 Li+    0.500000    0.000000    0.263662    2.000000 Uiso  1.0000
 Li2_B4_n132 Li+    0.000000    0.500000    0.263662    2.000000 Uiso  0.3650
 Li1_B4_n133 Li+    0.500000    0.000000    0.265662    2.000000 Uiso  1.0000
 Li2_B4_n133 Li+    0.000000    0.500000    0.265662    2.000000 Uiso  0.3650
 Li1_B4_n134 Li+    0.500000    0.000000    0.267662    2.000000 Uiso  1.0000
 Li2_B4_n134 Li+    0.000000    0.500000    0.267662    2.000000 Uiso  0.3650
 Li1_B4_n135 Li+    0.500000    0.000000    0.269662    2.000000 Uiso  1.0000
 Li2_B4_n135 Li+    0.000000    0.500000    0.269662    2.000000 Uiso  0.3650
 Li1_B4_n136 Li+    0.500000    0.000000    0.271662    2.000000 Uiso  1.0000
 Li2_B4_n136 Li+    0.000000    0.500000    0.271662    2.000000 Uiso  0.3650
 Li1_B4_n137 Li+    0.500000    0.000000    0.273662    2.000000 Uiso  1.0000
 Li2_B4_n137 Li+    0.000000    0.500000    0.273662    2.000000 Uiso  0.3650
 Li1_B4_n138 Li+    0.500000    0.000000    0.275662    2.000000 Uiso  1.0000
 Li2_B4_n138 Li+    0.000000    0.500000    0.275662    2.000000 Uiso  0.3650
 Li1_B4_n139 Li+    0.500000    0.000000    0.277662    2.000000 Uiso  1.0000
 Li2_B4_n139 Li+    0.000000    0.500000    0.277662    2.000000 Uiso  0.3650
 Li1_B4_n140 Li+    0.500000    0.000000    0.279662    2.000000 Uiso  1.0000
 Li2_B4_n140 Li+    0.000000    0.500000    0.279662    2.000000 Uiso  0.3650
 Li1_B4_n141 Li+    0.500000    0.000000    0.281662    2.000000 Uiso  1.0000
 Li2_B4_n141 Li+    0.000000    0.500000    0.281662    2.000000 Uiso  0.3650
 Li1_B4_n142 Li+    0.500000    0.000000    0.283662    2.000000 Uiso  1.0000
 Li2_B4_n142 Li+    0.000000    0.500000    0.283662    2.000000 Uiso  0.3650
 Li1_B4_n143 Li+    0.500000    0.000000    0.285662    2.000000 Uiso  1.0000
 Li2_B4_n143 Li+    0.000000    0.500000    0.285662    2.000000 Uiso  0.3650
 Li1_B4_n144 Li+    0.500000    0.000000    0.287662    2.000000 Uiso  1.0000
 Li2_B4_n144 Li+    0.000000    0.500000    0.287662    2.000000 Uiso  0.3650
 Li1_B4_n145 Li+    0.500000    0.000000    0.289662    2.000000 Uiso  1.0000
 Li2_B4_n145 Li+    0.000000    0.500000    0.289662    2.000000 Uiso  0.3650
 Li1_B4_n146 Li+    0.500000    0.000000    0.291662    2.000000 Uiso  1.0000
 Li2_B4_n146 Li+    0.000000    0.500000    0.291662    2.000000 Uiso  0.3650
 Li1_B4_n147 Li+    0.500000    0.000000    0.293662    2.000000 Uiso  1.0000
 Li2_B4_n147 Li+    0.000000    0.500000    0.293662    2.000000 Uiso  0.3650
 Li1_B4_n148 Li+    0.500000    0.000000    0.295662    2.000000 Uiso  1.0000
 Li2_B4_n148 Li+    0.000000    0.500000    0.295662    2.000000 Uiso  0.3650
 Li1_B4_n149 Li+    0.500000    0.000000    0.297662    2.000000 Uiso  1.0000
 Li2_B4_n149 Li+    0.000000    0.500000    0.297662    2.000000 Uiso  0.3650
 Li1_B4_n150 Li+    0.500000    0.000000    0.299662    2.000000 Uiso  1.0000
 Li2_B4_n150 Li+    0.000000    0.500000    0.299662    2.000000 Uiso  0.3650
 Li1_B4_n151 Li+    0.500000    0.000000    0.301662    2.000000 Uiso  1.0000
 Li2_B4_n151 Li+    0.000000    0.500000    0.301662    2.000000 Uiso  0.3650
 Li1_B4_n152 Li+    0.500000    0.000000    0.303662    2.000000 Uiso  1.0000
 Li2_B4_n152 Li+    0.000000    0.500000    0.303662    2.000000 Uiso  0.3650
 Li1_B4_n153 Li+    0.500000    0.000000    0.305662    2.000000 Uiso  1.0000
 Li2_B4_n153 Li+    0.000000    0.500000    0.305662    2.000000 Uiso  0.3650
 Li1_B4_n154 Li+    0.500000    0.000000    0.307662    2.000000 Uiso  1.0000
 Li2_B4_n154 Li+    0.000000    0.500000    0.307662    2.000000 Uiso  0.3650
 Li1_B4_n155 Li+    0.500000    0.000000    0.309662    2.000000 Uiso  1.0000
 Li2_B4_n155 Li+    0.000000    0.500000    0.309662    2.000000 Uiso  0.3650
 Li1_B4_n156 Li+    0.500000    0.000000    0.311662    2.000000 Uiso  1.0000
 Li2_B4_n156 Li+    0.000000    0.500000    0.311662    2.000000 Uiso  0.3650
 Li1_B4_n157 Li+    0.500000    0.000000    0.313662    2.000000 Uiso  1.0000
 Li2_B4_n157 Li+    0.000000    0.500000    0.313662    2.000000 Uiso  0.3650
 Li1_B4_n158 Li+    0.500000    0.000000    0.315662    2.000000 Uiso  1.0000
 Li2_B4_n158 Li+    0.000000    0.500000    0.315662    2.000000 Uiso  0.3650
 Li1_B4_n159 Li+    0.500000    0.000000    0.317662    2.000000 Uiso  1.0000
 Li2_B4_n159 Li+    0.000000    0.500000    0.317662    2.000000 Uiso  0.3650
 Li1_B4_n160 Li+    0.500000    0.000000    0.319662    2.000000 Uiso  1.0000
 Li2_B4_n160 Li+    0.000000    0.500000    0.319662    2.000000 Uiso  0.3650
 Li1_B4_n161 Li+    0.500000    0.000000    0.321662    2.000000 Uiso  1.0000
 Li2_B4_n161 Li+    0.000000    0.500000    0.321662    2.000000 Uiso  0.3650
 Li1_B4_n162 Li+    0.500000    0.000000    0.323662    2.000000 Uiso  1.0000
 Li2_B4_n162 Li+    0.000000    0.500000    0.323662    2.000000 Uiso  0.3650
 Li1_B4_n163 Li+    0.500000    0.000000    0.325662    2.000000 Uiso  1.0000
 Li2_B4_n163 Li+    0.000000    0.500000    0.325662    2.000000 Uiso  0.3650
 Li1_B4_n164 Li+    0.500000    0.000000    0.327662    2.000000 Uiso  1.0000
 Li2_B4_n164 Li+    0.000000    0.500000    0.327662    2.000000 Uiso  0.3650
 Li1_B4_n165 Li+    0.500000    0.000000    0.329662    2.000000 Uiso  1.0000
 Li2_B4_n165 Li+    0.000000    0.500000    0.329662    2.000000 Uiso  0.3650
 Li1_B4_n166 Li+    0.500000    0.000000    0.331662    2.000000 Uiso  1.0000
 Li2_B4_n166 Li+    0.000000    0.500000    0.331662    2.000000 Uiso  0.3650
 Li1_B4_n167 Li+    0.500000    0.000000    0.333662    2.000000 Uiso  1.0000
 Li2_B4_n167 Li+    0.000000    0.500000    0.333662    2.000000 Uiso  0.3650
 Li1_B4_n168 Li+    0.500000    0.000000    0.335662    2.000000 Uiso  1.0000
 Li2_B4_n168 Li+    0.000000    0.500000    0.335662    2.000000 Uiso  0.3650
 Li1_B4_n169 Li+    0.500000    0.000000    0.337662    2.000000 Uiso  1.0000
 Li2_B4_n169 Li+    0.000000    0.500000    0.337662    2.000000 Uiso  0.3650
 Li1_B4_n170 Li+    0.500000    0.000000    0.339662    2.000000 Uiso  1.0000
 Li2_B4_n170 Li+    0.000000    0.500000    0.339662    2.000000 Uiso  0.3650
 Li1_B4_n171 Li+    0.500000    0.000000    0.341662    2.000000 Uiso  1.0000
 Li2_B4_n171 Li+    0.000000    0.500000    0.341662    2.000000 Uiso  0.3650
 Li1_B4_n172 Li+    0.500000    0.000000    0.343662    2.000000 Uiso  1.0000
 Li2_B4_n172 Li+    0.000000    0.500000    0.343662    2.000000 Uiso  0.3650
 Li1_B4_n173 Li+    0.500000    0.000000    0.345662    2.000000 Uiso  1.0000
 Li2_B4_n173 Li+    0.000000    0.500000    0.345662    2.000000 Uiso  0.3650
 Li1_B4_n174 Li+    0.500000    0.000000    0.347662    2.000000 Uiso  1.0000
 Li2_B4_n174 Li+    0.000000    0.500000    0.347662    2.000000 Uiso  0.3650
 Li1_B4_n175 Li+    0.500000    0.000000    0.349662    2.000000 Uiso  1.0000
 Li2_B4_n175 Li+    0.000000    0.500000    0.349662    2.000000 Uiso  0.3650
 Li1_B4_n176 Li+    0.500000    0.000000    0.351662    2.000000 Uiso  1.0000
 Li2_B4_n176 Li+    0.000000    0.500000    0.351662    2.000000 Uiso  0.3650
 Li1_B4_n177 Li+    0.500000    0.000000    0.353662    2.000000 Uiso  1.0000
 Li2_B4_n177 Li+    0.000000    0.500000    0.353662    2.000000 Uiso  0.3650
 Li1_B4_n178 Li+    0.500000    0.000000    0.355662    2.000000 Uiso  1.0000
 Li2_B4_n178 Li+    0.000000    0.500000    0.355662    2.000000 Uiso  0.3650
 Li1_B4_n179 Li+    0.500000    0.000000    0.357662    2.000000 Uiso  1.0000
 Li2_B4_n179 Li+    0.000000    0.500000    0.357662    2.000000 Uiso  0.3650
 Li1_B4_n180 Li+    0.500000    0.000000    0.359662    2.000000 Uiso  1.0000
 Li2_B4_n180 Li+    0.000000    0.500000    0.359662    2.000000 Uiso  0.3650
 Li1_B4_n181 Li+    0.500000    0.000000    0.361662    2.000000 Uiso  1.0000
 Li2_B4_n181 Li+    0.000000    0.500000    0.361662    2.000000 Uiso  0.3650
 Li1_B4_n182 Li+    0.500000    0.000000    0.363662    2.000000 Uiso  1.0000
 Li2_B4_n182 Li+    0.000000    0.500000    0.363662    2.000000 Uiso  0.3650
 Li1_B4_n183 Li+    0.500000    0.000000    0.365662    2.000000 Uiso  1.0000
 Li2_B4_n183 Li+    0.000000    0.500000    0.365662    2.000000 Uiso  0.3650
 Li1_B4_n184 Li+    0.500000    0.000000    0.367662    2.000000 Uiso  1.0000
 Li2_B4_n184 Li+    0.000000    0.500000    0.367662    2.000000 Uiso  0.3650
 Li1_B4_n185 Li+    0.500000    0.000000    0.369662    2.000000 Uiso  1.0000
 Li2_B4_n185 Li+    0.000000    0.500000    0.369662    2.000000 Uiso  0.3650
 Li1_B4_n186 Li+    0.500000    0.000000    0.371662    2.000000 Uiso  1.0000
 Li2_B4_n186 Li+    0.000000    0.500000    0.371662    2.000000 Uiso  0.3650
 Li1_B4_n187 Li+    0.500000    0.000000    0.373662    2.000000 Uiso  1.0000
 Li2_B4_n187 Li+    0.000000    0.500000    0.373662    2.000000 Uiso  0.3650
 Li1_B4_n188 Li+    0.500000    0.000000    0.375662    2.000000 Uiso  1.0000
 Li2_B4_n188 Li+    0.000000    0.500000    0.375662    2.000000 Uiso  0.3650
 Li1_B4_n189 Li+    0.500000    0.000000    0.377662    2.000000 Uiso  1.0000
 Li2_B4_n189 Li+    0.000000    0.500000    0.377662    2.000000 Uiso  0.3650
 Li1_B4_n190 Li+    0.500000    0.000000    0.379662    2.000000 Uiso  1.0000
 Li2_B4_n190 Li+    0.000000    0.500000    0.379662    2.000000 Uiso  0.3650
 Li1_B4_n191 Li+    0.500000    0.000000    0.381662    2.000000 Uiso  1.0000
 Li2_B4_n191 Li+    0.000000    0.500000    0.381662    2.000000 Uiso  0.3650
 Li1_B4_n192 Li+    0.500000    0.000000    0.383662    2.000000 Uiso  1.0000
 Li2_B4_n192 Li+    0.000000    0.500000    0.383662    2.000000 Uiso  0.3650
 Li1_B4_n193 Li+    0.500000    0.000000    0.385662    2.000000 Uiso  1.0000
 Li2_B4_n193 Li+    0.000000    0.500000    0.385662    2.000000 Uiso  0.3650
 Li1_B4_n194 Li+    0.500000    0.000000    0.387662    2.000000 Uiso  1.0000
 Li2_B4_n194 Li+    0.000000    0.500000    0.387662    2.000000 Uiso  0.3650
 Li1_B4_n195 Li+    0.500000    0.000000    0.389662    2.000000 Uiso  1.0000
 Li2_B4_n195 Li+    0.000000    0.500000    0.389662    2.000000 Uiso  0.3650
 Li1_B4_n196 Li+    0.500000    0.000000    0.391662    2.000000 Uiso  1.0000
 Li2_B4_n196 Li+    0.000000    0.500000    0.391662    2.000000 Uiso  0.3650
 Li1_B4_n197 Li+    0.500000    0.000000    0.393662    2.000000 Uiso  1.0000
 Li2_B4_n197 Li+    0.000000    0.500000    0.393662    2.000000 Uiso  0.3650
 Li1_B4_n198 Li+    0.500000    0.000000    0.395662    2.000000 Uiso  1.0000
 Li2_B4_n198 Li+    0.000000    0.500000    0.395662    2.000000 Uiso  0.3650
 Li1_B4_n199 Li+    0.500000    0.000000    0.397662    2.000000 Uiso  1.0000
 Li2_B4_n199 Li+    0.000000    0.500000    0.397662    2.000000 Uiso  0.3650
 Li1_B4_n200 Li+    0.500000    0.000000    0.399662    2.000000 Uiso  1.0000
 Li2_B4_n200 Li+    0.000000    0.500000    0.399662    2.000000 Uiso  0.3650
 Li1_B4_n201 Li+    0.500000    0.000000    0.401662    2.000000 Uiso  1.0000
 Li2_B4_n201 Li+    0.000000    0.500000    0.401662    2.000000 Uiso  0.3650
 Li1_B4_n202 Li+    0.500000    0.000000    0.403662    2.000000 Uiso  1.0000
 Li2_B4_n202 Li+    0.000000    0.500000    0.403662    2.000000 Uiso  0.3650
 Li1_B4_n203 Li+    0.500000    0.000000    0.405662    2.000000 Uiso  1.0000
 Li2_B4_n203 Li+    0.000000    0.500000    0.405662    2.000000 Uiso  0.3650
 Li1_B4_n204 Li+    0.500000    0.000000    0.407662    2.000000 Uiso  1.0000
 Li2_B4_n204 Li+    0.000000    0.500000    0.407662    2.000000 Uiso  0.3650
 Li1_B4_n205 Li+    0.500000    0.000000    0.409662    2.000000 Uiso  1.0000
 Li2_B4_n205 Li+    0.000000    0.500000    0.409662    2.000000 Uiso  0.3650
 Li1_B4_n206 Li+    0.500000    0.000000    0.411662    2.000000 Uiso  1.0000
 Li2_B4_n206 Li+    0.000000    0.500000    0.411662    2.000000 Uiso  0.3650
 Li1_B4_n207 Li+    0.500000    0.000000    0.413662    2.000000 Uiso  1.0000
 Li2_B4_n207 Li+    0.000000    0.500000    0.413662    2.000000 Uiso  0.3650
 Li1_B4_n208 Li+    0.500000    0.000000    0.415662    2.000000 Uiso  1.0000
 Li2_B4_n208 Li+    0.000000    0.500000    0.415662    2.000000 Uiso  0.3650
 Li1_B4_n209 Li+    0.500000    0.000000    0.417662    2.000000 Uiso  1.0000
 Li2_B4_n209 Li+    0.000000    0.500000    0.417662    2.000000 Uiso  0.3650
 Li1_B4_n210 Li+    0.500000    0.000000    0.419662    2.000000 Uiso  1.0000
 Li2_B4_n210 Li+    0.000000    0.500000    0.419662    2.000000 Uiso  0.3650
 Li1_B4_n211 Li+    0.500000    0.000000    0.421662    2.000000 Uiso  1.0000
 Li2_B4_n211 Li+    0.000000    0.500000    0.421662    2.000000 Uiso  0.3650
 Li1_B4_n212 Li+    0.500000    0.000000    0.423662    2.000000 Uiso  1.0000
 Li2_B4_n212 Li+    0.000000    0.500000    0.423662    2.000000 Uiso  0.3650
 Li1_B4_n213 Li+    0.500000    0.000000    0.425662    2.000000 Uiso  1.0000
 Li2_B4_n213 Li+    0.000000    0.500000    0.425662    2.000000 Uiso  0.3650
 Li1_B4_n214 Li+    0.500000    0.000000    0.427662    2.000000 Uiso  1.0000
 Li2_B4_n214 Li+    0.000000    0.500000    0.427662    2.000000 Uiso  0.3650
 Li1_B4_n215 Li+    0.500000    0.000000    0.429662    2.000000 Uiso  1.0000
 Li2_B4_n215 Li+    0.000000    0.500000    0.429662    2.000000 Uiso  0.3650
 Li1_B4_n216 Li+    0.500000    0.000000    0.431662    2.000000 Uiso  1.0000
 Li2_B4_n216 Li+    0.000000    0.500000    0.431662    2.000000 Uiso  0.3650
 Li1_B4_n217 Li+    0.500000    0.000000    0.433662    2.000000 Uiso  1.0000
 Li2_B4_n217 Li+    0.000000    0.500000    0.433662    2.000000 Uiso  0.3650
 Li1_B4_n218 Li+    0.500000    0.000000    0.435662    2.000000 Uiso  1.0000
 Li2_B4_n218 Li+    0.000000    0.500000    0.435662    2.000000 Uiso  0.3650
 Li1_B4_n219 Li+    0.500000    0.000000    0.437662    2.000000 Uiso  1.0000
 Li2_B4_n219 Li+    0.000000    0.500000    0.437662    2.000000 Uiso  0.3650
 Li1_B4_n220 Li+    0.500000    0.000000    0.439662    2.000000 Uiso  1.0000
 Li2_B4_n220 Li+    0.000000    0.500000    0.439662    2.000000 Uiso  0.3650
 Li1_B4_n221 Li+    0.500000    0.000000    0.441662    2.000000 Uiso  1.0000
 Li2_B4_n221 Li+    0.000000    0.500000    0.441662    2.000000 Uiso  0.3650
 Li1_B4_n222 Li+    0.500000    0.000000    0.443662    2.000000 Uiso  1.0000
 Li2_B4_n222 Li+    0.000000    0.500000    0.443662    2.000000 Uiso  0.3650
 Li1_B4_n223 Li+    0.500000    0.000000    0.445662    2.000000 Uiso  1.0000
 Li2_B4_n223 Li+    0.000000    0.500000    0.445662    2.000000 Uiso  0.3650
 Li1_B4_n224 Li+    0.500000    0.000000    0.447662    2.000000 Uiso  1.0000
 Li2_B4_n224 Li+    0.000000    0.500000    0.447662    2.000000 Uiso  0.3650
 Li1_B4_n225 Li+    0.500000    0.000000    0.449662    2.000000 Uiso  1.0000
 Li2_B4_n225 Li+    0.000000    0.500000    0.449662    2.000000 Uiso  0.3650
 Li1_B4_n226 Li+    0.500000    0.000000    0.451662    2.000000 Uiso  1.0000
 Li2_B4_n226 Li+    0.000000    0.500000    0.451662    2.000000 Uiso  0.3650
 Li1_B4_n227 Li+    0.500000    0.000000    0.453662    2.000000 Uiso  1.0000
 Li2_B4_n227 Li+    0.000000    0.500000    0.453662    2.000000 Uiso  0.3650
 Li1_B4_n228 Li+    0.500000    0.000000    0.455662    2.000000 Uiso  1.0000
 Li2_B4_n228 Li+    0.000000    0.500000    0.455662    2.000000 Uiso  0.3650
 Li1_B4_n229 Li+    0.500000    0.000000    0.457662    2.000000 Uiso  1.0000
 Li2_B4_n229 Li+    0.000000    0.500000    0.457662    2.000000 Uiso  0.3650
 Li1_B4_n230 Li+    0.500000    0.000000    0.459662    2.000000 Uiso  1.0000
 Li2_B4_n230 Li+    0.000000    0.500000    0.459662    2.000000 Uiso  0.3650
 Li1_B4_n231 Li+    0.500000    0.000000    0.461662    2.000000 Uiso  1.0000
 Li2_B4_n231 Li+    0.000000    0.500000    0.461662    2.000000 Uiso  0.3650
 Li1_B4_n232 Li+    0.500000    0.000000    0.463662    2.000000 Uiso  1.0000
 Li2_B4_n232 Li+    0.000000    0.500000    0.463662    2.000000 Uiso  0.3650
 Li1_B4_n233 Li+    0.500000    0.000000    0.465662    2.000000 Uiso  1.0000
 Li2_B4_n233 Li+    0.000000    0.500000    0.465662    2.000000 Uiso  0.3650
 Li1_B4_n234 Li+    0.500000    0.000000    0.467662    2.000000 Uiso  1.0000
 Li2_B4_n234 Li+    0.000000    0.500000    0.467662    2.000000 Uiso  0.3650
 Li1_B4_n235 Li+    0.500000    0.000000    0.469662    2.000000 Uiso  1.0000
 Li2_B4_n235 Li+    0.000000    0.500000    0.469662    2.000000 Uiso  0.3650
 Li1_B4_n236 Li+    0.500000    0.000000    0.471662    2.000000 Uiso  1.0000
 Li2_B4_n236 Li+    0.000000    0.500000    0.471662    2.000000 Uiso  0.3650
 Li1_B4_n237 Li+    0.500000    0.000000    0.473662    2.000000 Uiso  1.0000
 Li2_B4_n237 Li+    0.000000    0.500000    0.473662    2.000000 Uiso  0.3650
 Li1_B4_n238 Li+    0.500000    0.000000    0.475662    2.000000 Uiso  1.0000
 Li2_B4_n238 Li+    0.000000    0.500000    0.475662    2.000000 Uiso  0.3650
 Li1_B4_n239 Li+    0.500000    0.000000    0.477662    2.000000 Uiso  1.0000
 Li2_B4_n239 Li+    0.000000    0.500000    0.477662    2.000000 Uiso  0.3650
 Li1_B4_n240 Li+    0.500000    0.000000    0.479662    2.000000 Uiso  1.0000
 Li2_B4_n240 Li+    0.000000    0.500000    0.479662    2.000000 Uiso  0.3650
 Li1_B4_n241 Li+    0.500000    0.000000    0.481662    2.000000 Uiso  1.0000
 Li2_B4_n241 Li+    0.000000    0.500000    0.481662    2.000000 Uiso  0.3650
 Li1_B4_n242 Li+    0.500000    0.000000    0.483662    2.000000 Uiso  1.0000
 Li2_B4_n242 Li+    0.000000    0.500000    0.483662    2.000000 Uiso  0.3650
 Li1_B4_n243 Li+    0.500000    0.000000    0.485662    2.000000 Uiso  1.0000
 Li2_B4_n243 Li+    0.000000    0.500000    0.485662    2.000000 Uiso  0.3650
 Li1_B4_n244 Li+    0.500000    0.000000    0.487662    2.000000 Uiso  1.0000
 Li2_B4_n244 Li+    0.000000    0.500000    0.487662    2.000000 Uiso  0.3650
 Li1_B4_n245 Li+    0.500000    0.000000    0.489662    2.000000 Uiso  1.0000
 Li2_B4_n245 Li+    0.000000    0.500000    0.489662    2.000000 Uiso  0.3650
 Li1_B4_n246 Li+    0.500000    0.000000    0.491662    2.000000 Uiso  1.0000
 Li2_B4_n246 Li+    0.000000    0.500000    0.491662    2.000000 Uiso  0.3650
 Li1_B4_n247 Li+    0.500000    0.000000    0.493662    2.000000 Uiso  1.0000
 Li2_B4_n247 Li+    0.000000    0.500000    0.493662    2.000000 Uiso  0.3650
 Li1_B4_n248 Li+    0.500000    0.000000    0.495662    2.000000 Uiso  1.0000
 Li2_B4_n248 Li+    0.000000    0.500000    0.495662    2.000000 Uiso  0.3650
 Li1_B4_n249 Li+    0.500000    0.000000    0.497662    2.000000 Uiso  1.0000
 Li2_B4_n249 Li+    0.000000    0.500000    0.497662    2.000000 Uiso  0.3650
 Li1_B4_n250 Li+    0.500000    0.000000    0.499662    2.000000 Uiso  1.0000
 Li2_B4_n250 Li+    0.000000    0.500000    0.499662    2.000000 Uiso  0.3650
 Li1_B4_n251 Li+    0.500000    0.000000    0.501662    2.000000 Uiso  1.0000
 Li2_B4_n251 Li+    0.000000    0.500000    0.501662    2.000000 Uiso  0.3650
 Li1_B4_n252 Li+    0.500000    0.000000    0.503662    2.000000 Uiso  1.0000
 Li2_B4_n252 Li+    0.000000    0.500000    0.503662    2.000000 Uiso  0.3650
 Li1_B4_n253 Li+    0.500000    0.000000    0.505662    2.000000 Uiso  1.0000
 Li2_B4_n253 Li+    0.000000    0.500000    0.505662    2.000000 Uiso  0.3650
 Li1_B4_n254 Li+    0.500000    0.000000    0.507662    2.000000 Uiso  1.0000
 Li2_B4_n254 Li+    0.000000    0.500000    0.507662    2.000000 Uiso  0.3650
 Li1_B4_n255 Li+    0.500000    0.000000    0.509662    2.000000 Uiso  1.0000
 Li2_B4_n255 Li+    0.000000    0.500000    0.509662    2.000000 Uiso  0.3650
 Li1_B4_n256 Li+    0.500000    0.000000    0.511662    2.000000 Uiso  1.0000
 Li2_B4_n256 Li+    0.000000    0.500000    0.511662    2.000000 Uiso  0.3650
 Li1_B4_n257 Li+    0.500000    0.000000    0.513662    2.000000 Uiso  1.0000
 Li2_B4_n257 Li+    0.000000    0.500000    0.513662    2.000000 Uiso  0.3650
 Li1_B4_n258 Li+    0.500000    0.000000    0.515662    2.000000 Uiso  1.0000
 Li2_B4_n258 Li+    0.000000    0.500000    0.515662    2.000000 Uiso  0.3650
 Li1_B4_n259 Li+    0.500000    0.000000    0.517662    2.000000 Uiso  1.0000
 Li2_B4_n259 Li+    0.000000    0.500000    0.517662    2.000000 Uiso  0.3650
 Li1_B4_n260 Li+    0.500000    0.000000    0.519662    2.000000 Uiso  1.0000
 Li2_B4_n260 Li+    0.000000    0.500000    0.519662    2.000000 Uiso  0.3650
 Li1_B4_n261 Li+    0.500000    0.000000    0.521662    2.000000 Uiso  1.0000
 Li2_B4_n261 Li+    0.000000    0.500000    0.521662    2.000000 Uiso  0.3650
 Li1_B4_n262 Li+    0.500000    0.000000    0.523662    2.000000 Uiso  1.0000
 Li2_B4_n262 Li+    0.000000    0.500000    0.523662    2.000000 Uiso  0.3650
 Li1_B4_n263 Li+    0.500000    0.000000    0.525662    2.000000 Uiso  1.0000
 Li2_B4_n263 Li+    0.000000    0.500000    0.525662    2.000000 Uiso  0.3650
 Li1_B4_n264 Li+    0.500000    0.000000    0.527662    2.000000 Uiso  1.0000
 Li2_B4_n264 Li+    0.000000    0.500000    0.527662    2.000000 Uiso  0.3650
 Li1_B4_n265 Li+    0.500000    0.000000    0.529662    2.000000 Uiso  1.0000
 Li2_B4_n265 Li+    0.000000    0.500000    0.529662    2.000000 Uiso  0.3650
 Li1_B4_n266 Li+    0.500000    0.000000    0.531662    2.000000 Uiso  1.0000
 Li2_B4_n266 Li+    0.000000    0.500000    0.531662    2.000000 Uiso  0.3650
 Li1_B4_n267 Li+    0.500000    0.000000    0.533662    2.000000 Uiso  1.0000
 Li2_B4_n267 Li+    0.000000    0.500000    0.533662    2.000000 Uiso  0.3650
 Li1_B4_n268 Li+    0.500000    0.000000    0.535662    2.000000 Uiso  1.0000
 Li2_B4_n268 Li+    0.000000    0.500000    0.535662    2.000000 Uiso  0.3650
 Li1_B4_n269 Li+    0.500000    0.000000    0.537662    2.000000 Uiso  1.0000
 Li2_B4_n269 Li+    0.000000    0.500000    0.537662    2.000000 Uiso  0.3650
 Li1_B4_n270 Li+    0.500000    0.000000    0.539662    2.000000 Uiso  1.0000
 Li2_B4_n270 Li+    0.000000    0.500000    0.539662    2.000000 Uiso  0.3650
 Li1_B4_n271 Li+    0.500000    0.000000    0.541662    2.000000 Uiso  1.0000
 Li2_B4_n271 Li+    0.000000    0.500000    0.541662    2.000000 Uiso  0.3650
 Li1_B4_n272 Li+    0.500000    0.000000    0.543662    2.000000 Uiso  1.0000
 Li2_B4_n272 Li+    0.000000    0.500000    0.543662    2.000000 Uiso  0.3650
 Li1_B4_n273 Li+    0.500000    0.000000    0.545662    2.000000 Uiso  1.0000
 Li2_B4_n273 Li+    0.000000    0.500000    0.545662    2.000000 Uiso  0.3650
 Li1_B4_n274 Li+    0.500000    0.000000    0.547662    2.000000 Uiso  1.0000
 Li2_B4_n274 Li+    0.000000    0.500000    0.547662    2.000000 Uiso  0.3650
 Li1_B4_n275 Li+    0.500000    0.000000    0.549662    2.000000 Uiso  1.0000
 Li2_B4_n275 Li+    0.000000    0.500000    0.549662    2.000000 Uiso  0.3650
 Li1_B4_n276 Li+    0.500000    0.000000    0.551662    2.000000 Uiso  1.0000
 Li2_B4_n276 Li+    0.000000    0.500000    0.551662    2.000000 Uiso  0.3650
 Li1_B4_n277 Li+    0.500000    0.000000    0.553662    2.000000 Uiso  1.0000
 Li2_B4_n277 Li+    0.000000    0.500000    0.553662    2.000000 Uiso  0.3650
 Li1_B4_n278 Li+    0.500000    0.000000    0.555662    2.000000 Uiso  1.0000
 Li2_B4_n278 Li+    0.000000    0.500000    0.555662    2.000000 Uiso  0.3650
 Li1_B4_n279 Li+    0.500000    0.000000    0.557662    2.000000 Uiso  1.0000
 Li2_B4_n279 Li+    0.000000    0.500000    0.557662    2.000000 Uiso  0.3650
 Li1_B4_n280 Li+    0.500000    0.000000    0.559662    2.000000 Uiso  1.0000
 Li2_B4_n280 Li+    0.000000    0.500000    0.559662    2.000000 Uiso  0.3650
 Li1_B4_n281 Li+    0.500000    0.000000    0.561662    2.000000 Uiso  1.0000
 Li2_B4_n281 Li+    0.000000    0.500000    0.561662    2.000000 Uiso  0.3650
 Li1_B4_n282 Li+    0.500000    0.000000    0.563662    2.000000 Uiso  1.0000
 Li2_B4_n282 Li+    0.000000    0.500000    0.563662    2.000000 Uiso  0.3650
 Li1_B4_n283 Li+    0.500000    0.000000    0.565662    2.000000 Uiso  1.0000
 Li2_B4_n283 Li+    0.000000    0.500000    0.565662    2.000000 Uiso  0.3650
 Li1_B4_n284 Li+    0.500000    0.000000    0.567662    2.000000 Uiso  1.0000
 Li2_B4_n284 Li+    0.000000    0.500000    0.567662    2.000000 Uiso  0.3650
 Li1_B4_n285 Li+    0.500000    0.000000    0.569662    2.000000 Uiso  1.0000
 Li2_B4_n285 Li+    0.000000    0.500000    0.569662    2.000000 Uiso  0.3650
 Li1_B4_n286 Li+    0.500000    0.000000    0.571662    2.000000 Uiso  1.0000
 Li2_B4_n286 Li+    0.000000    0.500000    0.571662    2.000000 Uiso  0.3650
 Li1_B4_n287 Li+    0.500000    0.000000    0.573662    2.000000 Uiso  1.0000
 Li2_B4_n287 Li+    0.000000    0.500000    0.573662    2.000000 Uiso  0.3650
 Li1_B4_n288 Li+    0.500000    0.000000    0.575662    2.000000 Uiso  1.0000
 Li2_B4_n288 Li+    0.000000    0.500000    0.575662    2.000000 Uiso  0.3650
 Li1_B4_n289 Li+    0.500000    0.000000    0.577662    2.000000 Uiso  1.0000
 Li2_B4_n289 Li+    0.000000    0.500000    0.577662    2.000000 Uiso  0.3650
 Li1_B4_n290 Li+    0.500000    0.000000    0.579662    2.000000 Uiso  1.0000
 Li2_B4_n290 Li+    0.000000    0.500000    0.579662    2.000000 Uiso  0.3650
 Li1_B4_n291 Li+    0.500000    0.000000    0.581662    2.000000 Uiso  1.0000
 Li2_B4_n291 Li+    0.000000    0.500000    0.581662    2.000000 Uiso  0.3650
 Li1_B4_n292 Li+    0.500000    0.000000    0.583662    2.000000 Uiso  1.0000
 Li2_B4_n292 Li+    0.000000    0.500000    0.583662    2.000000 Uiso  0.3650
 Li1_B4_n293 Li+    0.500000    0.000000    0.585662    2.000000 Uiso  1.0000
 Li2_B4_n293 Li+    0.000000    0.500000    0.585662    2.000000 Uiso  0.3650
 Li1_B4_n294 Li+    0.500000    0.000000    0.587662    2.000000 Uiso  1.0000
 Li2_B4_n294 Li+    0.000000    0.500000    0.587662    2.000000 Uiso  0.3650
 Li1_B4_n295 Li+    0.500000    0.000000    0.589662    2.000000 Uiso  1.0000
 Li2_B4_n295 Li+    0.000000    0.500000    0.589662    2.000000 Uiso  0.3650
 Li1_B4_n296 Li+    0.500000    0.000000    0.591662    2.000000 Uiso  1.0000
 Li2_B4_n296 Li+    0.000000    0.500000    0.591662    2.000000 Uiso  0.3650
 Li1_B4_n297 Li+    0.500000    0.000000    0.593662    2.000000 Uiso  1.0000
 Li2_B4_n297 Li+    0.000000    0.500000    0.593662    2.000000 Uiso  0.3650
 Li1_B4_n298 Li+    0.500000    0.000000    0.595662    2.000000 Uiso  1.0000
 Li2_B4_n298 Li+    0.000000    0.500000    0.595662    2.000000 Uiso  0.3650
 Li1_B4_n299 Li+    0.500000    0.000000    0.597662    2.000000 Uiso  1.0000
 Li2_B4_n299 Li+    0.000000    0.500000    0.597662    2.000000 Uiso  0.3650
 Li1_B4_n300 Li+    0.500000    0.000000    0.599662    2.000000 Uiso  1.0000
 Li2_B4_n300 Li+    0.000000    0.500000    0.599662    2.000000 Uiso  0.3650
 Li1_B4_n301 Li+    0.500000    0.000000    0.601662    2.000000 Uiso  1.0000
 Li2_B4_n301 Li+    0.000000    0.500000    0.601662    2.000000 Uiso  0.3650
 Li1_B4_n302 Li+    0.500000    0.000000    0.603662    2.000000 Uiso  1.0000
 Li2_B4_n302 Li+    0.000000    0.500000    0.603662    2.000000 Uiso  0.3650
 Li1_B4_n303 Li+    0.500000    0.000000    0.605662    2.000000 Uiso  1.0000
 Li2_B4_n303 Li+    0.000000    0.500000    0.605662    2.000000 Uiso  0.3650
 Li1_B4_n304 Li+    0.500000    0.000000    0.607662    2.000000 Uiso  1.0000
 Li2_B4_n304 Li+    0.000000    0.500000    0.607662    2.000000 Uiso  0.3650
 Li1_B4_n305 Li+    0.500000    0.000000    0.609662    2.000000 Uiso  1.0000
 Li2_B4_n305 Li+    0.000000    0.500000    0.609662    2.000000 Uiso  0.3650
 Li1_B4_n306 Li+    0.500000    0.000000    0.611662    2.000000 Uiso  1.0000
 Li2_B4_n306 Li+    0.000000    0.500000    0.611662    2.000000 Uiso  0.3650
 Li1_B4_n307 Li+    0.500000    0.000000    0.613662    2.000000 Uiso  1.0000
 Li2_B4_n307 Li+    0.000000    0.500000    0.613662    2.000000 Uiso  0.3650
 Li1_B4_n308 Li+    0.500000    0.000000    0.615662    2.000000 Uiso  1.0000
 Li2_B4_n308 Li+    0.000000    0.500000    0.615662    2.000000 Uiso  0.3650
 Li1_B4_n309 Li+    0.500000    0.000000    0.617662    2.000000 Uiso  1.0000
 Li2_B4_n309 Li+    0.000000    0.500000    0.617662    2.000000 Uiso  0.3650
 Li1_B4_n310 Li+    0.500000    0.000000    0.619662    2.000000 Uiso  1.0000
 Li2_B4_n310 Li+    0.000000    0.500000    0.619662    2.000000 Uiso  0.3650
 Li1_B4_n311 Li+    0.500000    0.000000    0.621662    2.000000 Uiso  1.0000
 Li2_B4_n311 Li+    0.000000    0.500000    0.621662    2.000000 Uiso  0.3650
 Li1_B4_n312 Li+    0.500000    0.000000    0.623662    2.000000 Uiso  1.0000
 Li2_B4_n312 Li+    0.000000    0.500000    0.623662    2.000000 Uiso  0.3650
 Li1_B4_n313 Li+    0.500000    0.000000    0.625662    2.000000 Uiso  1.0000
 Li2_B4_n313 Li+    0.000000    0.500000    0.625662    2.000000 Uiso  0.3650
 Li1_B4_n314 Li+    0.500000    0.000000    0.627662    2.000000 Uiso  1.0000
 Li2_B4_n314 Li+    0.000000    0.500000    0.627662    2.000000 Uiso  0.3650
 Li1_B4_n315 Li+    0.500000    0.000000    0.629662    2.000000 Uiso  1.0000
 Li2_B4_n315 Li+    0.000000    0.500000    0.629662    2.000000 Uiso  0.3650
 Li1_B4_n316 Li+    0.500000    0.000000    0.631662    2.000000 Uiso  1.0000
 Li2_B4_n316 Li+    0.000000    0.500000    0.631662    2.000000 Uiso  0.3650
 Li1_B4_n317 Li+    0.500000    0.000000    0.633662    2.000000 Uiso  1.0000
 Li2_B4_n317 Li+    0.000000    0.500000    0.633662    2.000000 Uiso  0.3650
 Li1_B4_n318 Li+    0.500000    0.000000    0.635662    2.000000 Uiso  1.0000
 Li2_B4_n318 Li+    0.000000    0.500000    0.635662    2.000000 Uiso  0.3650
 Li1_B4_n319 Li+    0.500000    0.000000    0.637662    2.000000 Uiso  1.0000
 Li2_B4_n319 Li+    0.000000    0.500000    0.637662    2.000000 Uiso  0.3650
 Li1_B4_n320 Li+    0.500000    0.000000    0.639662    2.000000 Uiso  1.0000
 Li2_B4_n320 Li+    0.000000    0.500000    0.639662    2.000000 Uiso  0.3650
 Li1_B4_n321 Li+    0.500000    0.000000    0.641662    2.000000 Uiso  1.0000
 Li2_B4_n321 Li+    0.000000    0.500000    0.641662    2.000000 Uiso  0.3650
 Li1_B4_n322 Li+    0.500000    0.000000    0.643662    2.000000 Uiso  1.0000
 Li2_B4_n322 Li+    0.000000    0.500000    0.643662    2.000000 Uiso  0.3650
 Li1_B4_n323 Li+    0.500000    0.000000    0.645662    2.000000 Uiso  1.0000
 Li2_B4_n323 Li+    0.000000    0.500000    0.645662    2.000000 Uiso  0.3650
 Li1_B4_n324 Li+    0.500000    0.000000    0.647662    2.000000 Uiso  1.0000
 Li2_B4_n324 Li+    0.000000    0.500000    0.647662    2.000000 Uiso  0.3650
 Li1_B4_n325 Li+    0.500000    0.000000    0.649662    2.000000 Uiso  1.0000
 Li2_B4_n325 Li+    0.000000    0.500000    0.649662    2.000000 Uiso  0.3650
 Li1_B4_n326 Li+    0.500000    0.000000    0.651662    2.000000 Uiso  1.0000
 Li2_B4_n326 Li+    0.000000    0.500000    0.651662    2.000000 Uiso  0.3650
 Li1_B4_n327 Li+    0.500000    0.000000    0.653662    2.000000 Uiso  1.0000
 Li2_B4_n327 Li+    0.000000    0.500000    0.653662    2.000000 Uiso  0.3650
 Li1_B4_n328 Li+    0.500000    0.000000    0.655662    2.000000 Uiso  1.0000
 Li2_B4_n328 Li+    0.000000    0.500000    0.655662    2.000000 Uiso  0.3650
 Li1_B4_n329 Li+    0.500000    0.000000    0.657662    2.000000 Uiso  1.0000
 Li2_B4_n329 Li+    0.000000    0.500000    0.657662    2.000000 Uiso  0.3650
 Li1_B4_n330 Li+    0.500000    0.000000    0.659662    2.000000 Uiso  1.0000
 Li2_B4_n330 Li+    0.000000    0.500000    0.659662    2.000000 Uiso  0.3650
 Li1_B4_n331 Li+    0.500000    0.000000    0.661662    2.000000 Uiso  1.0000
 Li2_B4_n331 Li+    0.000000    0.500000    0.661662    2.000000 Uiso  0.3650
 Li1_B4_n332 Li+    0.500000    0.000000    0.663662    2.000000 Uiso  1.0000
 Li2_B4_n332 Li+    0.000000    0.500000    0.663662    2.000000 Uiso  0.3650
 Li1_B4_n333 Li+    0.500000    0.000000    0.665662    2.000000 Uiso  1.0000
 Li2_B4_n333 Li+    0.000000    0.500000    0.665662    2.000000 Uiso  0.3650
 Li1_B4_n334 Li+    0.500000    0.000000    0.667662    2.000000 Uiso  1.0000
 Li2_B4_n334 Li+    0.000000    0.500000    0.667662    2.000000 Uiso  0.3650
 Li1_B4_n335 Li+    0.500000    0.000000    0.669662    2.000000 Uiso  1.0000
 Li2_B4_n335 Li+    0.000000    0.500000    0.669662    2.000000 Uiso  0.3650
 Li1_B4_n336 Li+    0.500000    0.000000    0.671662    2.000000 Uiso  1.0000
 Li2_B4_n336 Li+    0.000000    0.500000    0.671662    2.000000 Uiso  0.3650
 Li1_B4_n337 Li+    0.500000    0.000000    0.673662    2.000000 Uiso  1.0000
 Li2_B4_n337 Li+    0.000000    0.500000    0.673662    2.000000 Uiso  0.3650
 Li1_B4_n338 Li+    0.500000    0.000000    0.675662    2.000000 Uiso  1.0000
 Li2_B4_n338 Li+    0.000000    0.500000    0.675662    2.000000 Uiso  0.3650
 Li1_B4_n339 Li+    0.500000    0.000000    0.677662    2.000000 Uiso  1.0000
 Li2_B4_n339 Li+    0.000000    0.500000    0.677662    2.000000 Uiso  0.3650
 Li1_B4_n340 Li+    0.500000    0.000000    0.679662    2.000000 Uiso  1.0000
 Li2_B4_n340 Li+    0.000000    0.500000    0.679662    2.000000 Uiso  0.3650
 Li1_B4_n341 Li+    0.500000    0.000000    0.681662    2.000000 Uiso  1.0000
 Li2_B4_n341 Li+    0.000000    0.500000    0.681662    2.000000 Uiso  0.3650
 Li1_B4_n342 Li+    0.500000    0.000000    0.683662    2.000000 Uiso  1.0000
 Li2_B4_n342 Li+    0.000000    0.500000    0.683662    2.000000 Uiso  0.3650
 Li1_B4_n343 Li+    0.500000    0.000000    0.685662    2.000000 Uiso  1.0000
 Li2_B4_n343 Li+    0.000000    0.500000    0.685662    2.000000 Uiso  0.3650
 Li1_B4_n344 Li+    0.500000    0.000000    0.687662    2.000000 Uiso  1.0000
 Li2_B4_n344 Li+    0.000000    0.500000    0.687662    2.000000 Uiso  0.3650
 Li1_B4_n345 Li+    0.500000    0.000000    0.689662    2.000000 Uiso  1.0000
 Li2_B4_n345 Li+    0.000000    0.500000    0.689662    2.000000 Uiso  0.3650
 Li1_B4_n346 Li+    0.500000    0.000000    0.691662    2.000000 Uiso  1.0000
 Li2_B4_n346 Li+    0.000000    0.500000    0.691662    2.000000 Uiso  0.3650
 Li1_B4_n347 Li+    0.500000    0.000000    0.693662    2.000000 Uiso  1.0000
 Li2_B4_n347 Li+    0.000000    0.500000    0.693662    2.000000 Uiso  0.3650
 Li1_B4_n348 Li+    0.500000    0.000000    0.695662    2.000000 Uiso  1.0000
 Li2_B4_n348 Li+    0.000000    0.500000    0.695662    2.000000 Uiso  0.3650
 Li1_B4_n349 Li+    0.500000    0.000000    0.697662    2.000000 Uiso  1.0000
 Li2_B4_n349 Li+    0.000000    0.500000    0.697662    2.000000 Uiso  0.3650
 Li1_B4_n350 Li+    0.500000    0.000000    0.699662    2.000000 Uiso  1.0000
 Li2_B4_n350 Li+    0.000000    0.500000    0.699662    2.000000 Uiso  0.3650
 Li1_B4_n351 Li+    0.500000    0.000000    0.701662    2.000000 Uiso  1.0000
 Li2_B4_n351 Li+    0.000000    0.500000    0.701662    2.000000 Uiso  0.3650
 Li1_B4_n352 Li+    0.500000    0.000000    0.703662    2.000000 Uiso  1.0000
 Li2_B4_n352 Li+    0.000000    0.500000    0.703662    2.000000 Uiso  0.3650
 Li1_B4_n353 Li+    0.500000    0.000000    0.705662    2.000000 Uiso  1.0000
 Li2_B4_n353 Li+    0.000000    0.500000    0.705662    2.000000 Uiso  0.3650
 Li1_B4_n354 Li+    0.500000    0.000000    0.707662    2.000000 Uiso  1.0000
 Li2_B4_n354 Li+    0.000000    0.500000    0.707662    2.000000 Uiso  0.3650
 Li1_B4_n355 Li+    0.500000    0.000000    0.709662    2.000000 Uiso  1.0000
 Li2_B4_n355 Li+    0.000000    0.500000    0.709662    2.000000 Uiso  0.3650
 Li1_B4_n356 Li+    0.500000    0.000000    0.711662    2.000000 Uiso  1.0000
 Li2_B4_n356 Li+    0.000000    0.500000    0.711662    2.000000 Uiso  0.3650
 Li1_B4_n357 Li+    0.500000    0.000000    0.713662    2.000000 Uiso  1.0000
 Li2_B4_n357 Li+    0.000000    0.500000    0.713662    2.000000 Uiso  0.3650
 Li1_B4_n358 Li+    0.500000    0.000000    0.715662    2.000000 Uiso  1.0000
 Li2_B4_n358 Li+    0.000000    0.500000    0.715662    2.000000 Uiso  0.3650
 Li1_B4_n359 Li+    0.500000    0.000000    0.717662    2.000000 Uiso  1.0000
 Li2_B4_n359 Li+    0.000000    0.500000    0.717662    2.000000 Uiso  0.3650
 Li1_B4_n360 Li+    0.500000    0.000000    0.719662    2.000000 Uiso  1.0000
 Li2_B4_n360 Li+    0.000000    0.500000    0.719662    2.000000 Uiso  0.3650
 Li1_B4_n361 Li+    0.500000    0.000000    0.721662    2.000000 Uiso  1.0000
 Li2_B4_n361 Li+    0.000000    0.500000    0.721662    2.000000 Uiso  0.3650
 Li1_B4_n362 Li+    0.500000    0.000000    0.723662    2.000000 Uiso  1.0000
 Li2_B4_n362 Li+    0.000000    0.500000    0.723662    2.000000 Uiso  0.3650
 Li1_B4_n363 Li+    0.500000    0.000000    0.725662    2.000000 Uiso  1.0000
 Li2_B4_n363 Li+    0.000000    0.500000    0.725662    2.000000 Uiso  0.3650
 Li1_B4_n364 Li+    0.500000    0.000000    0.727662    2.000000 Uiso  1.0000
 Li2_B4_n364 Li+    0.000000    0.500000    0.727662    2.000000 Uiso  0.3650
 Li1_B4_n365 Li+    0.500000    0.000000    0.729662    2.000000 Uiso  1.0000
 Li2_B4_n365 Li+    0.000000    0.500000    0.729662    2.000000 Uiso  0.3650
 Li1_B4_n366 Li+    0.500000    0.000000    0.731662    2.000000 Uiso  1.0000
 Li2_B4_n366 Li+    0.000000    0.500000    0.731662    2.000000 Uiso  0.3650
 Li1_B4_n367 Li+    0.500000    0.000000    0.733662    2.000000 Uiso  1.0000
 Li2_B4_n367 Li+    0.000000    0.500000    0.733662    2.000000 Uiso  0.3650
 Li1_B4_n368 Li+    0.500000    0.000000    0.735662    2.000000 Uiso  1.0000
 Li2_B4_n368 Li+    0.000000    0.500000    0.735662    2.000000 Uiso  0.3650
 Li1_B4_n369 Li+    0.500000    0.000000    0.737662    2.000000 Uiso  1.0000
 Li2_B4_n369 Li+    0.000000    0.500000    0.737662    2.000000 Uiso  0.3650
 Li1_B4_n370 Li+    0.500000    0.000000    0.739662    2.000000 Uiso  1.0000
 Li2_B4_n370 Li+    0.000000    0.500000    0.739662    2.000000 Uiso  0.3650
 Li1_B4_n371 Li+    0.500000    0.000000    0.741662    2.000000 Uiso  1.0000
 Li2_B4_n371 Li+    0.000000    0.500000    0.741662    2.000000 Uiso  0.3650
 Li1_B4_n372 Li+    0.500000    0.000000    0.743662    2.000000 Uiso  1.0000
 Li2_B4_n372 Li+    0.000000    0.500000    0.743662    2.000000 Uiso  0.3650
 Li1_B4_n373 Li+    0.500000    0.000000    0.745662    2.000000 Uiso  1.0000
 Li2_B4_n373 Li+    0.000000    0.500000    0.745662    2.000000 Uiso  0.3650
 Li1_B4_n374 Li+    0.500000    0.000000    0.747662    2.000000 Uiso  1.0000
 Li2_B4_n374 Li+    0.000000    0.500000    0.747662    2.000000 Uiso  0.3650
 Li1_B4_n375 Li+    0.500000    0.000000    0.749662    2.000000 Uiso  1.0000
 Li2_B4_n375 Li+    0.000000    0.500000    0.749662    2.000000 Uiso  0.3650
 Li1_B4_n376 Li+    0.500000    0.000000    0.751662    2.000000 Uiso  1.0000
 Li2_B4_n376 Li+    0.000000    0.500000    0.751662    2.000000 Uiso  0.3650
 Li1_B4_n377 Li+    0.500000    0.000000    0.753662    2.000000 Uiso  1.0000
 Li2_B4_n377 Li+    0.000000    0.500000    0.753662    2.000000 Uiso  0.3650
 Li1_B4_n378 Li+    0.500000    0.000000    0.755662    2.000000 Uiso  1.0000
 Li2_B4_n378 Li+    0.000000    0.500000    0.755662    2.000000 Uiso  0.3650
 Li1_B4_n379 Li+    0.500000    0.000000    0.757662    2.000000 Uiso  1.0000
 Li2_B4_n379 Li+    0.000000    0.500000    0.757662    2.000000 Uiso  0.3650
 Li1_B4_n380 Li+    0.500000    0.000000    0.759662    2.000000 Uiso  1.0000
 Li2_B4_n380 Li+    0.000000    0.500000    0.759662    2.000000 Uiso  0.3650
 Li1_B4_n381 Li+    0.500000    0.000000    0.761662    2.000000 Uiso  1.0000
 Li2_B4_n381 Li+    0.000000    0.500000    0.761662    2.000000 Uiso  0.3650
 Li1_B4_n382 Li+    0.500000    0.000000    0.763662    2.000000 Uiso  1.0000
 Li2_B4_n382 Li+    0.000000    0.500000    0.763662    2.000000 Uiso  0.3650
 Li1_B4_n383 Li+    0.500000    0.000000    0.765662    2.000000 Uiso  1.0000
 Li2_B4_n383 Li+    0.000000    0.500000    0.765662    2.000000 Uiso  0.3650
 Li1_B4_n384 Li+    0.500000    0.000000    0.767662    2.000000 Uiso  1.0000
 Li2_B4_n384 Li+    0.000000    0.500000    0.767662    2.000000 Uiso  0.3650
 Li1_B4_n385 Li+    0.500000    0.000000    0.769662    2.000000 Uiso  1.0000
 Li2_B4_n385 Li+    0.000000    0.500000    0.769662    2.000000 Uiso  0.3650
 Li1_B4_n386 Li+    0.500000    0.000000    0.771662    2.000000 Uiso  1.0000
 Li2_B4_n386 Li+    0.000000    0.500000    0.771662    2.000000 Uiso  0.3650
 Li1_B4_n387 Li+    0.500000    0.000000    0.773662    2.000000 Uiso  1.0000
 Li2_B4_n387 Li+    0.000000    0.500000    0.773662    2.000000 Uiso  0.3650
 Li1_B4_n388 Li+    0.500000    0.000000    0.775662    2.000000 Uiso  1.0000
 Li2_B4_n388 Li+    0.000000    0.500000    0.775662    2.000000 Uiso  0.3650
 Li1_B4_n389 Li+    0.500000    0.000000    0.777662    2.000000 Uiso  1.0000
 Li2_B4_n389 Li+    0.000000    0.500000    0.777662    2.000000 Uiso  0.3650
 Li1_B4_n390 Li+    0.500000    0.000000    0.779662    2.000000 Uiso  1.0000
 Li2_B4_n390 Li+    0.000000    0.500000    0.779662    2.000000 Uiso  0.3650
 Li1_B4_n391 Li+    0.500000    0.000000    0.781662    2.000000 Uiso  1.0000
 Li2_B4_n391 Li+    0.000000    0.500000    0.781662    2.000000 Uiso  0.3650
 Li1_B4_n392 Li+    0.500000    0.000000    0.783662    2.000000 Uiso  1.0000
 Li2_B4_n392 Li+    0.000000    0.500000    0.783662    2.000000 Uiso  0.3650
 Li1_B4_n393 Li+    0.500000    0.000000    0.785662    2.000000 Uiso  1.0000
 Li2_B4_n393 Li+    0.000000    0.500000    0.785662    2.000000 Uiso  0.3650
 Li1_B4_n394 Li+    0.500000    0.000000    0.787662    2.000000 Uiso  1.0000
 Li2_B4_n394 Li+    0.000000    0.500000    0.787662    2.000000 Uiso  0.3650
 Li1_B4_n395 Li+    0.500000    0.000000    0.789662    2.000000 Uiso  1.0000
 Li2_B4_n395 Li+    0.000000    0.500000    0.789662    2.000000 Uiso  0.3650
 Li1_B4_n396 Li+    0.500000    0.000000    0.791662    2.000000 Uiso  1.0000
 Li2_B4_n396 Li+    0.000000    0.500000    0.791662    2.000000 Uiso  0.3650
 Li1_B4_n397 Li+    0.500000    0.000000    0.793662    2.000000 Uiso  1.0000
 Li2_B4_n397 Li+    0.000000    0.500000    0.793662    2.000000 Uiso  0.3650
 Li1_B4_n398 Li+    0.500000    0.000000    0.795662    2.000000 Uiso  1.0000
 Li2_B4_n398 Li+    0.000000    0.500000    0.795662    2.000000 Uiso  0.3650
 Li1_B4_n399 Li+    0.500000    0.000000    0.797662    2.000000 Uiso  1.0000
 Li2_B4_n399 Li+    0.000000    0.500000    0.797662    2.000000 Uiso  0.3650
 Li1_B4_n400 Li+    0.500000    0.000000    0.799662    2.000000 Uiso  1.0000
 Li2_B4_n400 Li+    0.000000    0.500000    0.799662    2.000000 Uiso  0.3650
 Li1_B4_n401 Li+    0.500000    0.000000    0.801662    2.000000 Uiso  1.0000
 Li2_B4_n401 Li+    0.000000    0.500000    0.801662    2.000000 Uiso  0.3650
 Li1_B4_n402 Li+    0.500000    0.000000    0.803662    2.000000 Uiso  1.0000
 Li2_B4_n402 Li+    0.000000    0.500000    0.803662    2.000000 Uiso  0.3650
 Li1_B4_n403 Li+    0.500000    0.000000    0.805662    2.000000 Uiso  1.0000
 Li2_B4_n403 Li+    0.000000    0.500000    0.805662    2.000000 Uiso  0.3650
 Li1_B4_n404 Li+    0.500000    0.000000    0.807662    2.000000 Uiso  1.0000
 Li2_B4_n404 Li+    0.000000    0.500000    0.807662    2.000000 Uiso  0.3650
 Li1_B4_n405 Li+    0.500000    0.000000    0.809662    2.000000 Uiso  1.0000
 Li2_B4_n405 Li+    0.000000    0.500000    0.809662    2.000000 Uiso  0.3650
 Li1_B4_n406 Li+    0.500000    0.000000    0.811662    2.000000 Uiso  1.0000
 Li2_B4_n406 Li+    0.000000    0.500000    0.811662    2.000000 Uiso  0.3650
 Li1_B4_n407 Li+    0.500000    0.000000    0.813662    2.000000 Uiso  1.0000
 Li2_B4_n407 Li+    0.000000    0.500000    0.813662    2.000000 Uiso  0.3650
 Li1_B4_n408 Li+    0.500000    0.000000    0.815662    2.000000 Uiso  1.0000
 Li2_B4_n408 Li+    0.000000    0.500000    0.815662    2.000000 Uiso  0.3650
 Li1_B4_n409 Li+    0.500000    0.000000    0.817662    2.000000 Uiso  1.0000
 Li2_B4_n409 Li+    0.000000    0.500000    0.817662    2.000000 Uiso  0.3650
 Li1_B4_n410 Li+    0.500000    0.000000    0.819662    2.000000 Uiso  1.0000
 Li2_B4_n410 Li+    0.000000    0.500000    0.819662    2.000000 Uiso  0.3650
 Li1_B4_n411 Li+    0.500000    0.000000    0.821662    2.000000 Uiso  1.0000
 Li2_B4_n411 Li+    0.000000    0.500000    0.821662    2.000000 Uiso  0.3650
 Li1_B4_n412 Li+    0.500000    0.000000    0.823662    2.000000 Uiso  1.0000
 Li2_B4_n412 Li+    0.000000    0.500000    0.823662    2.000000 Uiso  0.3650
 Li1_B4_n413 Li+    0.500000    0.000000    0.825662    2.000000 Uiso  1.0000
 Li2_B4_n413 Li+    0.000000    0.500000    0.825662    2.000000 Uiso  0.3650
 Li1_B4_n414 Li+    0.500000    0.000000    0.827662    2.000000 Uiso  1.0000
 Li2_B4_n414 Li+    0.000000    0.500000    0.827662    2.000000 Uiso  0.3650
 Li1_B4_n415 Li+    0.500000    0.000000    0.829662    2.000000 Uiso  1.0000
 Li2_B4_n415 Li+    0.000000    0.500000    0.829662    2.000000 Uiso  0.3650
 Li1_B4_n416 Li+    0.500000    0.000000    0.831662    2.000000 Uiso  1.0000
 Li2_B4_n416 Li+    0.000000    0.500000    0.831662    2.000000 Uiso  0.3650
 Li1_B4_n417 Li+    0.500000    0.000000    0.833662    2.000000 Uiso  1.0000
 Li2_B4_n417 Li+    0.000000    0.500000    0.833662    2.000000 Uiso  0.3650
 Li1_B4_n418 Li+    0.500000    0.000000    0.835662    2.000000 Uiso  1.0000
 Li2_B4_n418 Li+    0.000000    0.500000    0.835662    2.000000 Uiso  0.3650
 Li1_B4_n419 Li+    0.500000    0.000000    0.837662    2.000000 Uiso  1.0000
 Li2_B4_n419 Li+    0.000000    0.500000    0.837662    2.000000 Uiso  0.3650
 Li1_B4_n420 Li+    0.500000    0.000000    0.839662    2.000000 Uiso  1.0000
 Li2_B4_n420 Li+    0.000000    0.500000    0.839662    2.000000 Uiso  0.3650
 Li1_B4_n421 Li+    0.500000    0.000000    0.841662    2.000000 Uiso  1.0000
 Li2_B4_n421 Li+    0.000000    0.500000    0.841662    2.000000 Uiso  0.3650
 Li1_B4_n422 Li+    0.500000    0.000000    0.843662    2.000000 Uiso  1.0000
 Li2_B4_n422 Li+    0.000000    0.500000    0.843662    2.000000 Uiso  0.3650
 Li1_B4_n423 Li+    0.500000    0.000000    0.845662    2.000000 Uiso  1.0000
 Li2_B4_n423 Li+    0.000000    0.500000    0.845662    2.000000 Uiso  0.3650
 Li1_B4_n424 Li+    0.500000    0.000000    0.847662    2.000000 Uiso  1.0000
 Li2_B4_n424 Li+    0.000000    0.500000    0.847662    2.000000 Uiso  0.3650
 Li1_B4_n425 Li+    0.500000    0.000000    0.849662    2.000000 Uiso  1.0000
 Li2_B4_n425 Li+    0.000000    0.500000    0.849662    2.000000 Uiso  0.3650
 Li1_B4_n426 Li+    0.500000    0.000000    0.851662    2.000000 Uiso  1.0000
 Li2_B4_n426 Li+    0.000000    0.500000    0.851662    2.000000 Uiso  0.3650
 Li1_B4_n427 Li+    0.500000    0.000000    0.853662    2.000000 Uiso  1.0000
 Li2_B4_n427 Li+    0.000000    0.500000    0.853662    2.000000 Uiso  0.3650
 Li1_B4_n428 Li+    0.500000    0.000000    0.855662    2.000000 Uiso  1.0000
 Li2_B4_n428 Li+    0.000000    0.500000    0.855662    2.000000 Uiso  0.3650
 Li1_B4_n429 Li+    0.500000    0.000000    0.857662    2.000000 Uiso  1.0000
 Li2_B4_n429 Li+    0.000000    0.500000    0.857662    2.000000 Uiso  0.3650
 Li1_B4_n430 Li+    0.500000    0.000000    0.859662    2.000000 Uiso  1.0000
 Li2_B4_n430 Li+    0.000000    0.500000    0.859662    2.000000 Uiso  0.3650
 Li1_B4_n431 Li+    0.500000    0.000000    0.861662    2.000000 Uiso  1.0000
 Li2_B4_n431 Li+    0.000000    0.500000    0.861662    2.000000 Uiso  0.3650
 Li1_B4_n432 Li+    0.500000    0.000000    0.863662    2.000000 Uiso  1.0000
 Li2_B4_n432 Li+    0.000000    0.500000    0.863662    2.000000 Uiso  0.3650
 Li1_B4_n433 Li+    0.500000    0.000000    0.865662    2.000000 Uiso  1.0000
 Li2_B4_n433 Li+    0.000000    0.500000    0.865662    2.000000 Uiso  0.3650
 Li1_B4_n434 Li+    0.500000    0.000000    0.867662    2.000000 Uiso  1.0000
 Li2_B4_n434 Li+    0.000000    0.500000    0.867662    2.000000 Uiso  0.3650
 Li1_B4_n435 Li+    0.500000    0.000000    0.869662    2.000000 Uiso  1.0000
 Li2_B4_n435 Li+    0.000000    0.500000    0.869662    2.000000 Uiso  0.3650
 Li1_B4_n436 Li+    0.500000    0.000000    0.871662    2.000000 Uiso  1.0000
 Li2_B4_n436 Li+    0.000000    0.500000    0.871662    2.000000 Uiso  0.3650
 Li1_B4_n437 Li+    0.500000    0.000000    0.873662    2.000000 Uiso  1.0000
 Li2_B4_n437 Li+    0.000000    0.500000    0.873662    2.000000 Uiso  0.3650
 Li1_B4_n438 Li+    0.500000    0.000000    0.875662    2.000000 Uiso  1.0000
 Li2_B4_n438 Li+    0.000000    0.500000    0.875662    2.000000 Uiso  0.3650
 Li1_B4_n439 Li+    0.500000    0.000000    0.877662    2.000000 Uiso  1.0000
 Li2_B4_n439 Li+    0.000000    0.500000    0.877662    2.000000 Uiso  0.3650
 Li1_B4_n440 Li+    0.500000    0.000000    0.879662    2.000000 Uiso  1.0000
 Li2_B4_n440 Li+    0.000000    0.500000    0.879662    2.000000 Uiso  0.3650
 Li1_B4_n441 Li+    0.500000    0.000000    0.881662    2.000000 Uiso  1.0000
 Li2_B4_n441 Li+    0.000000    0.500000    0.881662    2.000000 Uiso  0.3650
 Li1_B4_n442 Li+    0.500000    0.000000    0.883662    2.000000 Uiso  1.0000
 Li2_B4_n442 Li+    0.000000    0.500000    0.883662    2.000000 Uiso  0.3650
 Li1_B4_n443 Li+    0.500000    0.000000    0.885662    2.000000 Uiso  1.0000
 Li2_B4_n443 Li+    0.000000    0.500000    0.885662    2.000000 Uiso  0.3650
 Li1_B4_n444 Li+    0.500000    0.000000    0.887662    2.000000 Uiso  1.0000
 Li2_B4_n444 Li+    0.000000    0.500000    0.887662    2.000000 Uiso  0.3650
 Li1_B4_n445 Li+    0.500000    0.000000    0.889662    2.000000 Uiso  1.0000
 Li2_B4_n445 Li+    0.000000    0.500000    0.889662    2.000000 Uiso  0.3650
 Li1_B4_n446 Li+    0.500000    0.000000    0.891662    2.000000 Uiso  1.0000
 Li2_B4_n446 Li+    0.000000    0.500000    0.891662    2.000000 Uiso  0.3650
 Li1_B4_n447 Li+    0.500000    0.000000    0.893662    2.000000 Uiso  1.0000
 Li2_B4_n447 Li+    0.000000    0.500000    0.893662    2.000000 Uiso  0.3650
 Li1_B4_n448 Li+    0.500000    0.000000    0.895662    2.000000 Uiso  1.0000
 Li2_B4_n448 Li+    0.000000    0.500000    0.895662    2.000000 Uiso  0.3650
 Li1_B4_n449 Li+    0.500000    0.000000    0.897662    2.000000 Uiso  1.0000
 Li2_B4_n449 Li+    0.000000    0.500000    0.897662    2.000000 Uiso  0.3650
 Li1_B4_n450 Li+    0.500000    0.000000    0.899662    2.000000 Uiso  1.0000
 Li2_B4_n450 Li+    0.000000    0.500000    0.899662    2.000000 Uiso  0.3650
 Li1_B4_n451 Li+    0.500000    0.000000    0.901662    2.000000 Uiso  1.0000
 Li2_B4_n451 Li+    0.000000    0.500000    0.901662    2.000000 Uiso  0.3650
 Li1_B4_n452 Li+    0.500000    0.000000    0.903662    2.000000 Uiso  1.0000
 Li2_B4_n452 Li+    0.000000    0.500000    0.903662    2.000000 Uiso  0.3650
 Li1_B4_n453 Li+    0.500000    0.000000    0.905662    2.000000 Uiso  1.0000
 Li2_B4_n453 Li+    0.000000    0.500000    0.905662    2.000000 Uiso  0.3650
 Li1_B4_n454 Li+    0.500000    0.000000    0.907662    2.000000 Uiso  1.0000
 Li2_B4_n454 Li+    0.000000    0.500000    0.907662    2.000000 Uiso  0.3650
 Li1_B4_n455 Li+    0.500000    0.000000    0.909662    2.000000 Uiso  1.0000
 Li2_B4_n455 Li+    0.000000    0.500000    0.909662    2.000000 Uiso  0.3650
 Li1_B4_n456 Li+    0.500000    0.000000    0.911662    2.000000 Uiso  1.0000
 Li2_B4_n456 Li+    0.000000    0.500000    0.911662    2.000000 Uiso  0.3650
 Li1_B4_n457 Li+    0.500000    0.000000    0.913662    2.000000 Uiso  1.0000
 Li2_B4_n457 Li+    0.000000    0.500000    0.913662    2.000000 Uiso  0.3650
 Li1_B4_n458 Li+    0.500000    0.000000    0.915662    2.000000 Uiso  1.0000
 Li2_B4_n458 Li+    0.000000    0.500000    0.915662    2.000000 Uiso  0.3650
 Li1_B4_n459 Li+    0.500000    0.000000    0.917662    2.000000 Uiso  1.0000
 Li2_B4_n459 Li+    0.000000    0.500000    0.917662    2.000000 Uiso  0.3650
 Li1_B4_n460 Li+    0.500000    0.000000    0.919662    2.000000 Uiso  1.0000
 Li2_B4_n460 Li+    0.000000    0.500000    0.919662    2.000000 Uiso  0.3650
 Li1_B4_n461 Li+    0.500000    0.000000    0.921662    2.000000 Uiso  1.0000
 Li2_B4_n461 Li+    0.000000    0.500000    0.921662    2.000000 Uiso  0.3650
 Li1_B4_n462 Li+    0.500000    0.000000    0.923662    2.000000 Uiso  1.0000
 Li2_B4_n462 Li+    0.000000    0.500000    0.923662    2.000000 Uiso  0.3650
 Li1_B4_n463 Li+    0.500000    0.000000    0.925662    2.000000 Uiso  1.0000
 Li2_B4_n463 Li+    0.000000    0.500000    0.925662    2.000000 Uiso  0.3650
 Li1_B4_n464 Li+    0.500000    0.000000    0.927662    2.000000 Uiso  1.0000
 Li2_B4_n464 Li+    0.000000    0.500000    0.927662    2.000000 Uiso  0.3650
 Li1_B4_n465 Li+    0.500000    0.000000    0.929662    2.000000 Uiso  1.0000
 Li2_B4_n465 Li+    0.000000    0.500000    0.929662    2.000000 Uiso  0.3650
 Li1_B4_n466 Li+    0.500000    0.000000    0.931662    2.000000 Uiso  1.0000
 Li2_B4_n466 Li+    0.000000    0.500000    0.931662    2.000000 Uiso  0.3650
 Li1_B4_n467 Li+    0.500000    0.000000    0.933662    2.000000 Uiso  1.0000
 Li2_B4_n467 Li+    0.000000    0.500000    0.933662    2.000000 Uiso  0.3650
 Li1_B4_n468 Li+    0.500000    0.000000    0.935662    2.000000 Uiso  1.0000
 Li2_B4_n468 Li+    0.000000    0.500000    0.935662    2.000000 Uiso  0.3650
 Li1_B4_n469 Li+    0.500000    0.000000    0.937662    2.000000 Uiso  1.0000
 Li2_B4_n469 Li+    0.000000    0.500000    0.937662    2.000000 Uiso  0.3650
 Li1_B4_n470 Li+    0.500000    0.000000    0.939662    2.000000 Uiso  1.0000
 Li2_B4_n470 Li+    0.000000    0.500000    0.939662    2.000000 Uiso  0.3650
 Li1_B4_n471 Li+    0.500000    0.000000    0.941662    2.000000 Uiso  1.0000
 Li2_B4_n471 Li+    0.000000    0.500000    0.941662    2.000000 Uiso  0.3650
 Li1_B4_n472 Li+    0.500000    0.000000    0.943662    2.000000 Uiso  1.0000
 Li2_B4_n472 Li+    0.000000    0.500000    0.943662    2.000000 Uiso  0.3650
 Li1_B4_n473 Li+    0.500000    0.000000    0.945662    2.000000 Uiso  1.0000
 Li2_B4_n473 Li+    0.000000    0.500000    0.945662    2.000000 Uiso  0.3650
 Li1_B4_n474 Li+    0.500000    0.000000    0.947662    2.000000 Uiso  1.0000
 Li2_B4_n474 Li+    0.000000    0.500000    0.947662    2.000000 Uiso  0.3650
 Li1_B4_n475 Li+    0.500000    0.000000    0.949662    2.000000 Uiso  1.0000
 Li2_B4_n475 Li+    0.000000    0.500000    0.949662    2.000000 Uiso  0.3650
 Li1_B4_n476 Li+    0.500000    0.000000    0.951662    2.000000 Uiso  1.0000
 Li2_B4_n476 Li+    0.000000    0.500000    0.951662    2.000000 Uiso  0.3650
 Li1_B4_n477 Li+    0.500000    0.000000    0.953662    2.000000 Uiso  1.0000
 Li2_B4_n477 Li+    0.000000    0.500000    0.953662    2.000000 Uiso  0.3650
 Li1_B4_n478 Li+    0.500000    0.000000    0.955662    2.000000 Uiso  1.0000
 Li2_B4_n478 Li+    0.000000    0.500000    0.955662    2.000000 Uiso  0.3650
 Li1_B4_n479 Li+    0.500000    0.000000    0.957662    2.000000 Uiso  1.0000
 Li2_B4_n479 Li+    0.000000    0.500000    0.957662    2.000000 Uiso  0.3650
 Li1_B4_n480 Li+    0.500000    0.000000    0.959662    2.000000 Uiso  1.0000
 Li2_B4_n480 Li+    0.000000    0.500000    0.959662    2.000000 Uiso  0.3650
 Li1_B4_n481 Li+    0.500000    0.000000    0.961662    2.000000 Uiso  1.0000
 Li2_B4_n481 Li+    0.000000    0.500000    0.961662    2.000000 Uiso  0.3650
 Li1_B4_n482 Li+    0.500000    0.000000    0.963662    2.000000 Uiso  1.0000
 Li2_B4_n482 Li+    0.000000    0.500000    0.963662    2.000000 Uiso  0.3650
 Li1_B4_n483 Li+    0.500000    0.000000    0.965662    2.000000 Uiso  1.0000
 Li2_B4_n483 Li+    0.000000    0.500000    0.965662    2.000000 Uiso  0.3650
 Li1_B4_n484 Li+    0.500000    0.000000    0.967662    2.000000 Uiso  1.0000
 Li2_B4_n484 Li+    0.000000    0.500000    0.967662    2.000000 Uiso  0.3650
 Li1_B4_n485 Li+    0.500000    0.000000    0.969662    2.000000 Uiso  1.0000
 Li2_B4_n485 Li+    0.000000    0.500000    0.969662    2.000000 Uiso  0.3650
 Li1_B4_n486 Li+    0.500000    0.000000    0.971662    2.000000 Uiso  1.0000
 Li2_B4_n486 Li+    0.000000    0.500000    0.971662    2.000000 Uiso  0.3650
 Li1_B4_n487 Li+    0.500000    0.000000    0.973662    2.000000 Uiso  1.0000
 Li2_B4_n487 Li+    0.000000    0.500000    0.973662    2.000000 Uiso  0.3650
 Li1_B4_n488 Li+    0.500000    0.000000    0.975662    2.000000 Uiso  1.0000
 Li2_B4_n488 Li+    0.000000    0.500000    0.975662    2.000000 Uiso  0.3650
 Li1_B4_n489 Li+    0.500000    0.000000    0.977662    2.000000 Uiso  1.0000
 Li2_B4_n489 Li+    0.000000    0.500000    0.977662    2.000000 Uiso  0.3650
 Li1_B4_n490 Li+    0.500000    0.000000    0.979662    2.000000 Uiso  1.0000
 Li2_B4_n490 Li+    0.000000    0.500000    0.979662    2.000000 Uiso  0.3650
 Li1_B4_n491 Li+    0.500000    0.000000    0.981662    2.000000 Uiso  1.0000
 Li2_B4_n491 Li+    0.000000    0.500000    0.981662    2.000000 Uiso  0.3650
 Li1_B4_n492 Li+    0.500000    0.000000    0.983662    2.000000 Uiso  1.0000
 Li2_B4_n492 Li+    0.000000    0.500000    0.983662    2.000000 Uiso  0.3650
 Li1_B4_n493 Li+    0.500000    0.000000    0.985662    2.000000 Uiso  1.0000
 Li2_B4_n493 Li+    0.000000    0.500000    0.985662    2.000000 Uiso  0.3650
 Li1_B4_n494 Li+    0.500000    0.000000    0.987662    2.000000 Uiso  1.0000
 Li2_B4_n494 Li+    0.000000    0.500000    0.987662    2.000000 Uiso  0.3650
 Li1_B4_n495 Li+    0.500000    0.000000    0.989662    2.000000 Uiso  1.0000
 Li2_B4_n495 Li+    0.000000    0.500000    0.989662    2.000000 Uiso  0.3650
 Li1_B4_n496 Li+    0.500000    0.000000    0.991662    2.000000 Uiso  1.0000
 Li2_B4_n496 Li+    0.000000    0.500000    0.991662    2.000000 Uiso  0.3650
 Li1_B4_n497 Li+    0.500000    0.000000    0.993662    2.000000 Uiso  1.0000
 Li2_B4_n497 Li+    0.000000    0.500000    0.993662    2.000000 Uiso  0.3650
 Li1_B4_n498 Li+    0.500000    0.000000    0.995662    2.000000 Uiso  1.0000
 Li2_B4_n498 Li+    0.000000    0.500000    0.995662    2.000000 Uiso  0.3650
 Li1_B4_n499 Li+    0.500000    0.000000    0.997662    2.000000 Uiso  1.0000
 Li2_B4_n499 Li+    0.000000    0.500000    0.997662    2.000000 Uiso  0.3650
 Li1_B4_n500 Li+    0.500000    0.000000    0.999662    2.000000 Uiso  1.0000
 Li2_B4_n500 Li+    0.000000    0.500000    0.999662    2.000000 Uiso  0.3650
